
! == Converted from gbXML file using Autodesk's Green Building Studio web service == !
! == gbXML2EnergyPlus stylesheet version 5.0.0.0                                  == !
! == Please see your Project End User License Agreement for use restrictions.     == !

  Version,  7.0;                                              !- Version Identifier

  ! ============== Run  Control ====================== !
  TIMESTEP,4;

  HeatBalanceAlgorithm,ConductionTransferFunction;

  SurfaceConvectionAlgorithm:Inside,TARP;

  SurfaceConvectionAlgorithm:Outside,DOE-2;

  SimulationControl,
  Yes,                                                         !- Do Zone Sizing Calculation
  Yes,                                                         !- Do System Sizing Calculation
  No,                                                          !- Do Plant Sizing Calculation
  Yes,                                                         !- Run Simulation for Sizing Periods
  Yes;                                                         !- Run Simulation for Weather File Run Periods

  RunPeriod,
  ,                                                            !- Name
  1,                                                           !- Begin Month
  1,                                                           !- Begin Day of Month
  12,                                                          !- End Month
  31,                                                          !- End Day of Month
  UseWeatherFile,                                              !- Day of Week for Start Day
  Yes,                                                         !- Use Weather File Holidays and Special Days
  Yes,                                                         !- Use Weather File Daylight Saving Period
  No,                                                          !- Apply Weekend Holiday Rule
  Yes,                                                         !- Use Weather File Rain Indicators
  Yes,                                                         !- Use Weather File Snow Indicators
  1;                                                           !- Number of Times Runperiod to be Repeated
  

! ============== Location  ====================== !

  
  ! Basic description:
  Site:Location,
  Annapolis  MD United States,                !- Name
    38.976669,                               !- Latitude {deg}
    -76.489960,                              !- Longitude {deg}
    -6.374163333333333 ,                                                                         !-Time Zone {hr}
    9;                              !- Elevation {m}
  
! ============== Ground Temps  ====================== !

Site:GroundTemperature:BuildingSurface,18.89,18.92,19.02,19.12,19.21,19.23,19.07,19.32,19.09,19.21,19.13,18.96;                                                                      



! ============== Heating Design Day  ====================== !


SizingPeriod:DesignDay,
  GBS_04R20_247113 Winter,             !- Name
  -11.6,                !- Maximum Dry-Bulb Temperature {C}
  ,                                                                          !- Daily Dry-Bulb Temperature Range {deltaC}
  -11.6,                !- Wet-Bulb at Max {C}
  99400,                                                      !- Barometric Pressure {Pa}
  4.5,                              !- Wind Speed {m/s}
  290,                                !- Wind Direction {deg}
  ,                           !- Sky Clearness
  ,                                   !- Rain Indicator
  ,                                   !- Snow Indicator
  21,                                  !- Day of Month
  1,                                 !- Month
  WinterDesignDay,                                                           !- Day Type
   ,                              !- Daylight Saving Time Indicator
  Wet-Bulb ;                                                                 !- Humidity Indicating Type


! ============== Cooling-Design Day  ====================== !


SizingPeriod:DesignDay,
  GBS_04R20_247113 Summer,                  !- Name
  32.6,                     !- Maximum Dry-Bulb Temperature {C}
  10.4,                !- Daily Dry-Bulb Temperature Range {deltaC}
  23.2,                     !- Wet-Bulb at Max {C}
  99800,                                                           !- Barometric Pressure {Pa}}
  0,                                 !- Wind Speed {m/s}
  0,                                   !- Wind Direction {deg}
  ,                               !- Sky Clearness
  ,                                       !- Rain Indicator
  ,                                       !- Snow Indicator
  21,                                      !- Day of Month
  7,                                     !- Month
  SummerDesignDay,                                                               !- Day Type
  ,                                   !- Daylight Saving Time Indicator
  Wet-Bulb ;                                                                     !- Humidity Indicating Type

! ==============                ====================== !
! ============== Day Schedules  ====================== !
! ==============                ====================== !


  
  Schedule:Day:Interval,
  aim0017,                       !- Name
  Fraction,                     !- Schedule Type Limits Name
  NO,                                                 !- Interpolate to Timestep
  5:00, 0.1,
  6:00, 0.3,
  10:00, 0.45,
  18:00, 0.3,
  19:00, 0.6,
  20:00, 0.8,
  21:00, 0.9,
  22:00, 0.8,
  23:00, 0.6,
  24:00, 0.3;
  
  
  Schedule:Day:Interval,
  aim0023,                       !- Name
  Fraction,                     !- Schedule Type Limits Name
  NO,                                                 !- Interpolate to Timestep
  6:00, 0.9,
  7:00, 0.7,
  9:00, 0.4,
  15:00, 0.2,
  16:00, 0.3,
  19:00, 0.5,
  21:00, 0.7,
  22:00, 0.8,
  24:00, 0.9;
  
  
  Schedule:Day:Interval,
  ds-374-Equip,                       !- Name
  Fraction,                     !- Schedule Type Limits Name
  NO,                                                 !- Interpolate to Timestep
  6:00, 0.3,
  10:00, 0.45,
  18:00, 0.3,
  19:00, 0.6,
  20:00, 0.8,
  21:00, 0.9,
  22:00, 0.8,
  23:00, 0.6,
  24:00, 0.3;
  
  
  Schedule:Day:Interval,
  ds-375-Equip,                       !- Name
  Fraction,                     !- Schedule Type Limits Name
  NO,                                                 !- Interpolate to Timestep
  6:00, 0.3,
  10:00, 0.45,
  18:00, 0.3,
  19:00, 0.6,
  20:00, 0.8,
  21:00, 0.9,
  22:00, 0.8,
  23:00, 0.6,
  24:00, 0.3;
  
  
  Schedule:Day:Interval,
  ds-376-Equip,                       !- Name
  Fraction,                     !- Schedule Type Limits Name
  NO,                                                 !- Interpolate to Timestep
  6:00, 0.3,
  10:00, 0.45,
  18:00, 0.3,
  19:00, 0.6,
  20:00, 0.8,
  21:00, 0.9,
  22:00, 0.8,
  23:00, 0.6,
  24:00, 0.3;
  
  
  Schedule:Day:Interval,
  ds-311-Fan,                       !- Name
  OnOff,                     !- Schedule Type Limits Name
  NO,                                                 !- Interpolate to Timestep
  24:00, 1;
  
  
  Schedule:Day:Interval,
  ds-312-Fan,                       !- Name
  OnOff,                     !- Schedule Type Limits Name
  NO,                                                 !- Interpolate to Timestep
  24:00, 1;
  
  
  Schedule:Day:Interval,
  ds-313-Fan,                       !- Name
  OnOff,                     !- Schedule Type Limits Name
  NO,                                                 !- Interpolate to Timestep
  24:00, 1;
  
  
  Schedule:Day:Interval,
  ds-311-Temp-On-20-Off-15.5,                       !- Name
  Temp,                     !- Schedule Type Limits Name
  NO,                                                 !- Interpolate to Timestep
  24:00, 20;
  
  
  Schedule:Day:Interval,
  ds-312-Temp-On-20-Off-15.5,                       !- Name
  Temp,                     !- Schedule Type Limits Name
  NO,                                                 !- Interpolate to Timestep
  24:00, 20;
  
  
  Schedule:Day:Interval,
  ds-313-Temp-On-20-Off-15.5,                       !- Name
  Temp,                     !- Schedule Type Limits Name
  NO,                                                 !- Interpolate to Timestep
  24:00, 20;
  
  
  Schedule:Day:Interval,
  ds-311-Temp-On-25.5-Off-29.4,                       !- Name
  Temp,                     !- Schedule Type Limits Name
  NO,                                                 !- Interpolate to Timestep
  24:00, 25.5;
  
  
  Schedule:Day:Interval,
  ds-312-Temp-On-25.5-Off-29.4,                       !- Name
  Temp,                     !- Schedule Type Limits Name
  NO,                                                 !- Interpolate to Timestep
  24:00, 25.5;
  
  
  Schedule:Day:Interval,
  ds-313-Temp-On-25.5-Off-29.4,                       !- Name
  Temp,                     !- Schedule Type Limits Name
  NO,                                                 !- Interpolate to Timestep
  24:00, 25.5;
  
  
  Schedule:Day:Interval,
  ds-311-Occ,                       !- Name
  Fraction,                     !- Schedule Type Limits Name
  NO,                                                 !- Interpolate to Timestep
  6:00, 0.9,
  7:00, 0.7,
  9:00, 0.4,
  15:00, 0.2,
  16:00, 0.3,
  19:00, 0.5,
  21:00, 0.7,
  22:00, 0.8,
  24:00, 0.9;
  
  
  Schedule:Day:Interval,
  ds-312-Occ,                       !- Name
  Fraction,                     !- Schedule Type Limits Name
  NO,                                                 !- Interpolate to Timestep
  6:00, 0.9,
  7:00, 0.7,
  9:00, 0.4,
  15:00, 0.2,
  16:00, 0.3,
  19:00, 0.5,
  21:00, 0.7,
  22:00, 0.8,
  24:00, 0.9;
  
  
  Schedule:Day:Interval,
  ds-313-Occ,                       !- Name
  Fraction,                     !- Schedule Type Limits Name
  NO,                                                 !- Interpolate to Timestep
  6:00, 0.9,
  7:00, 0.7,
  9:00, 0.4,
  15:00, 0.2,
  16:00, 0.3,
  19:00, 0.5,
  21:00, 0.7,
  22:00, 0.8,
  24:00, 0.9;
  
  
  Schedule:Day:Interval,
  ds-374-Light,                       !- Name
  Fraction,                     !- Schedule Type Limits Name
  NO,                                                 !- Interpolate to Timestep
  5:00, 0.05,
  6:00, 0.3,
  10:00, 0.45,
  18:00, 0.3,
  19:00, 0.6,
  20:00, 0.8,
  21:00, 0.9,
  22:00, 0.8,
  23:00, 0.6,
  24:00, 0.3;
  
  
  Schedule:Day:Interval,
  ds-375-Light,                       !- Name
  Fraction,                     !- Schedule Type Limits Name
  NO,                                                 !- Interpolate to Timestep
  5:00, 0.05,
  6:00, 0.3,
  10:00, 0.45,
  18:00, 0.3,
  19:00, 0.6,
  20:00, 0.8,
  21:00, 0.9,
  22:00, 0.8,
  23:00, 0.6,
  24:00, 0.3;
  
  
  Schedule:Day:Interval,
  ds-376-Light,                       !- Name
  Fraction,                     !- Schedule Type Limits Name
  NO,                                                 !- Interpolate to Timestep
  5:00, 0.05,
  6:00, 0.3,
  10:00, 0.45,
  18:00, 0.3,
  19:00, 0.6,
  20:00, 0.8,
  21:00, 0.9,
  22:00, 0.8,
  23:00, 0.6,
  24:00, 0.3;
  
  
  Schedule:Day:Interval,
  ds-314-Occ,                       !- Name
  Fraction,                     !- Schedule Type Limits Name
  NO,                                                 !- Interpolate to Timestep
  3:00, 0,
  6:00, 0.05,
  7:00, 0.8,
  8:00, 0.7,
  9:00, 0.5,
  10:00, 0.4,
  14:00, 0.25,
  15:00, 0.5,
  16:00, 0.6,
  18:00, 0.7,
  19:00, 0.4,
  20:00, 0.25,
  22:00, 0.2,
  24:00, 0.05;
  
  
  Schedule:Day:Interval,
  ds-315-Occ,                       !- Name
  Fraction,                     !- Schedule Type Limits Name
  NO,                                                 !- Interpolate to Timestep
  3:00, 0,
  6:00, 0.05,
  7:00, 0.8,
  8:00, 0.7,
  9:00, 0.5,
  10:00, 0.4,
  14:00, 0.25,
  15:00, 0.5,
  16:00, 0.6,
  18:00, 0.7,
  19:00, 0.4,
  20:00, 0.25,
  22:00, 0.2,
  24:00, 0.05;
  
  
  Schedule:Day:Interval,
  ds-316-Occ,                       !- Name
  Fraction,                     !- Schedule Type Limits Name
  NO,                                                 !- Interpolate to Timestep
  3:00, 0,
  6:00, 0.05,
  7:00, 0.8,
  8:00, 0.7,
  9:00, 0.5,
  10:00, 0.4,
  14:00, 0.25,
  15:00, 0.5,
  16:00, 0.6,
  18:00, 0.7,
  19:00, 0.4,
  20:00, 0.25,
  22:00, 0.2,
  24:00, 0.05;
  

! ==============                 ====================== !
! ============== Week Schedules  ====================== !
! ==============                 ====================== !

 
  Schedule:Week:Daily,
  aim0018,                                                          !- Name
  aim0017,                    !- Sunday Schedule:Day Name
    aim0017,                  !- Monday Schedule:Day Name
    aim0017,                  !- Tuesday Schedule:Day Name
    aim0017,                  !- Wednesday Schedule:Day Name
    aim0017,                  !- Thursday Schedule:Day Name
    aim0017,                  !- Friday Schedule:Day Name
    aim0017,                  !- Saturday Schedule:Day Name
    aim0017,                  !- Holiday Schedule:Day Name
    aim0017,                  !- CoolingDesignDay Schedule:Day Name
    aim0017,                  !- HeatingDesignDay Schedule:Day Name
    aim0017,                  !- CustomDay1 Schedule:Day Name
    aim0017;                  !- CustomDay2 Schedule:Day Name
  
  Schedule:Week:Daily,
  aim0024,                                                          !- Name
  aim0023,                    !- Sunday Schedule:Day Name
    aim0023,                  !- Monday Schedule:Day Name
    aim0023,                  !- Tuesday Schedule:Day Name
    aim0023,                  !- Wednesday Schedule:Day Name
    aim0023,                  !- Thursday Schedule:Day Name
    aim0023,                  !- Friday Schedule:Day Name
    aim0023,                  !- Saturday Schedule:Day Name
    aim0023,                  !- Holiday Schedule:Day Name
    aim0023,                  !- CoolingDesignDay Schedule:Day Name
    aim0023,                  !- HeatingDesignDay Schedule:Day Name
    aim0023,                  !- CustomDay1 Schedule:Day Name
    aim0023;                  !- CustomDay2 Schedule:Day Name
  
  Schedule:Week:Daily,
  ws-79-Equip,                                                          !- Name
  ds-376-Equip,                  !Sunday Schedule:Day Name
  ds-374-Equip,               !Monday Schedule:Day Name
  ds-374-Equip,               !Tuesday Schedule:Day Name
  ds-374-Equip,               !Wednesday Schedule:Day Name
  ds-374-Equip,               !Thursday Schedule:Day Name
  ds-374-Equip,               !Friday Schedule:Day Name
  ds-375-Equip,                     !Saturday Schedule:Day Name
  ds-376-Equip,                  !Holiday Schedule:Day Name
  ds-374-Equip,         !SummerDesignDay Schedule:Day Name
    ds-376-Equip,       !WinterDesignDay Schedule:Day Name

    ds-376-Equip,                      !CustomDay1 Schedule:Day Name
  ds-376-Equip;                      !CustomDay2 Schedule:Day Name
  
  Schedule:Week:Daily,
  ws-4-Fan,                                                          !- Name
  ds-313-Fan,                  !Sunday Schedule:Day Name
  ds-311-Fan,               !Monday Schedule:Day Name
  ds-311-Fan,               !Tuesday Schedule:Day Name
  ds-311-Fan,               !Wednesday Schedule:Day Name
  ds-311-Fan,               !Thursday Schedule:Day Name
  ds-311-Fan,               !Friday Schedule:Day Name
  ds-312-Fan,                     !Saturday Schedule:Day Name
  ds-313-Fan,                  !Holiday Schedule:Day Name
  ds-311-Fan,         !SummerDesignDay Schedule:Day Name
    ds-313-Fan,       !WinterDesignDay Schedule:Day Name

    ds-313-Fan,                      !CustomDay1 Schedule:Day Name
  ds-313-Fan;                      !CustomDay2 Schedule:Day Name
  
  Schedule:Week:Daily,
  ws-4-Temp-On-20-Off-15.5,                                                          !- Name
  ds-313-Temp-On-20-Off-15.5,                  !Sunday Schedule:Day Name
  ds-311-Temp-On-20-Off-15.5,               !Monday Schedule:Day Name
  ds-311-Temp-On-20-Off-15.5,               !Tuesday Schedule:Day Name
  ds-311-Temp-On-20-Off-15.5,               !Wednesday Schedule:Day Name
  ds-311-Temp-On-20-Off-15.5,               !Thursday Schedule:Day Name
  ds-311-Temp-On-20-Off-15.5,               !Friday Schedule:Day Name
  ds-312-Temp-On-20-Off-15.5,                     !Saturday Schedule:Day Name
  ds-313-Temp-On-20-Off-15.5,                  !Holiday Schedule:Day Name
  ds-311-Temp-On-20-Off-15.5,         !SummerDesignDay Schedule:Day Name
    ds-313-Temp-On-20-Off-15.5,       !WinterDesignDay Schedule:Day Name

    ds-313-Temp-On-20-Off-15.5,                      !CustomDay1 Schedule:Day Name
  ds-313-Temp-On-20-Off-15.5;                      !CustomDay2 Schedule:Day Name
  
  Schedule:Week:Daily,
  ws-4-Temp-On-25.5-Off-29.4,                                                          !- Name
  ds-313-Temp-On-25.5-Off-29.4,                  !Sunday Schedule:Day Name
  ds-311-Temp-On-25.5-Off-29.4,               !Monday Schedule:Day Name
  ds-311-Temp-On-25.5-Off-29.4,               !Tuesday Schedule:Day Name
  ds-311-Temp-On-25.5-Off-29.4,               !Wednesday Schedule:Day Name
  ds-311-Temp-On-25.5-Off-29.4,               !Thursday Schedule:Day Name
  ds-311-Temp-On-25.5-Off-29.4,               !Friday Schedule:Day Name
  ds-312-Temp-On-25.5-Off-29.4,                     !Saturday Schedule:Day Name
  ds-313-Temp-On-25.5-Off-29.4,                  !Holiday Schedule:Day Name
  ds-311-Temp-On-25.5-Off-29.4,         !SummerDesignDay Schedule:Day Name
    ds-313-Temp-On-25.5-Off-29.4,       !WinterDesignDay Schedule:Day Name

    ds-313-Temp-On-25.5-Off-29.4,                      !CustomDay1 Schedule:Day Name
  ds-313-Temp-On-25.5-Off-29.4;                      !CustomDay2 Schedule:Day Name
  
  Schedule:Week:Daily,
  ws-4-Occ,                                                          !- Name
  ds-313-Occ,                  !Sunday Schedule:Day Name
  ds-311-Occ,               !Monday Schedule:Day Name
  ds-311-Occ,               !Tuesday Schedule:Day Name
  ds-311-Occ,               !Wednesday Schedule:Day Name
  ds-311-Occ,               !Thursday Schedule:Day Name
  ds-311-Occ,               !Friday Schedule:Day Name
  ds-312-Occ,                     !Saturday Schedule:Day Name
  ds-313-Occ,                  !Holiday Schedule:Day Name
  ds-311-Occ,         !SummerDesignDay Schedule:Day Name
    ds-313-Occ,       !WinterDesignDay Schedule:Day Name

    ds-313-Occ,                      !CustomDay1 Schedule:Day Name
  ds-313-Occ;                      !CustomDay2 Schedule:Day Name
  
  Schedule:Week:Daily,
  ws-79-Light,                                                          !- Name
  ds-376-Light,                  !Sunday Schedule:Day Name
  ds-374-Light,               !Monday Schedule:Day Name
  ds-374-Light,               !Tuesday Schedule:Day Name
  ds-374-Light,               !Wednesday Schedule:Day Name
  ds-374-Light,               !Thursday Schedule:Day Name
  ds-374-Light,               !Friday Schedule:Day Name
  ds-375-Light,                     !Saturday Schedule:Day Name
  ds-376-Light,                  !Holiday Schedule:Day Name
  ds-374-Light,         !SummerDesignDay Schedule:Day Name
    ds-376-Light,       !WinterDesignDay Schedule:Day Name

    ds-376-Light,                      !CustomDay1 Schedule:Day Name
  ds-376-Light;                      !CustomDay2 Schedule:Day Name
  
  Schedule:Week:Daily,
  ws-106-Occ,                                                          !- Name
  ds-316-Occ,                  !Sunday Schedule:Day Name
  ds-314-Occ,               !Monday Schedule:Day Name
  ds-314-Occ,               !Tuesday Schedule:Day Name
  ds-314-Occ,               !Wednesday Schedule:Day Name
  ds-314-Occ,               !Thursday Schedule:Day Name
  ds-314-Occ,               !Friday Schedule:Day Name
  ds-315-Occ,                     !Saturday Schedule:Day Name
  ds-316-Occ,                  !Holiday Schedule:Day Name
  ds-314-Occ,         !SummerDesignDay Schedule:Day Name
    ds-316-Occ,       !WinterDesignDay Schedule:Day Name

    ds-316-Occ,                      !CustomDay1 Schedule:Day Name
  ds-316-Occ;                      !CustomDay2 Schedule:Day Name
  
! ==============            ====================== !
! ============== Schedules  ====================== !
! ==============            ====================== !


Schedule:Year,
aim0020,                                                                      !-Name
Fraction,                                                                    !-Type
aim0018,                   !-Week Schedule
01,                          !-Start Month 1
01,                          !-Start Day 1
12,                            !-End Month 1
31;                            !-End Day 1

Schedule:Year,
aim0026,                                                                      !-Name
Fraction,                                                                    !-Type
aim0024,                   !-Week Schedule
01,                          !-Start Month 1
01,                          !-Start Day 1
12,                            !-End Month 1
31;                            !-End Day 1

Schedule:Year,
EquipSched-50,                                                                      !-Name
Fraction,                                                                    !-Type
ws-79-Equip,                   !-Week Schedule
01,                          !-Start Month 1
01,                          !-Start Day 1
12,                            !-End Month 1
31;                            !-End Day 1

Schedule:Year,
FanSch-12,                                                                      !-Name
OnOff,                                                                    !-Type
ws-4-Fan,                   !-Week Schedule
01,                          !-Start Month 1
01,                          !-Start Day 1
12,                            !-End Month 1
31;                            !-End Day 1

Schedule:Year,
Heatsched-9,                                                                      !-Name
Temp,                                                                    !-Type
ws-4-Temp-On-20-Off-15.5,                   !-Week Schedule
01,                          !-Start Month 1
01,                          !-Start Day 1
12,                            !-End Month 1
31;                            !-End Day 1

Schedule:Year,
Coolsched-9,                                                                      !-Name
Temp,                                                                    !-Type
ws-4-Temp-On-25.5-Off-29.4,                   !-Week Schedule
01,                          !-Start Month 1
01,                          !-Start Day 1
12,                            !-End Month 1
31;                            !-End Day 1

Schedule:Year,
peopleSched-12,                                                                      !-Name
Fraction,                                                                    !-Type
ws-4-Occ,                   !-Week Schedule
01,                          !-Start Month 1
01,                          !-Start Day 1
12,                            !-End Month 1
31;                            !-End Day 1

Schedule:Year,
LightSched-50,                                                                      !-Name
Fraction,                                                                    !-Type
ws-79-Light,                   !-Week Schedule
01,                          !-Start Month 1
01,                          !-Start Day 1
12,                            !-End Month 1
31;                            !-End Day 1

Schedule:Year,
DHWSchedule-80,                                                                      !-Name
Fraction,                                                                    !-Type
ws-106-Occ,                   !-Week Schedule
01,                          !-Start Month 1
01,                          !-Start Day 1
12,                            !-End Month 1
31;                            !-End Day 1

  ! ==============             ====================== !
  ! ==============  Materials  ====================== !
  ! ==============             ====================== !
  
 MATERIAL,
  mat-247,                                              ! Name
  Smooth,   !-Roughness
0.00954,                                    ! Thickness (m)
  0.1625159868276,                                 ! Conductivity {W/m-K}
  1121.29244652556,                                      ! Density (kg/m3)
  1465.38,                                 ! Specific Heat (J/kgK)
  0.90   ,                                                                   ! Thermal Absorptance
  0.75   ,                                                                   ! Solar Absorptance
  0.75  ;                                                                    ! Visible Absorptance
  
 MATERIAL:NoMass,                         
  mat-244,                                              ! Name
  
Smooth,                                    !-Roughness
0.0105666172383794;                                      ! Resistance {m2-K/w}
  
 MATERIAL,
  mat-416,                                              ! Name
  Smooth,   !-Roughness
0.0762,                                    ! Thickness (m)
  0.041537632416,                                 ! Conductivity {W/m-K}
  240.276952826906,                                      ! Density (kg/m3)
  711.756,                                 ! Specific Heat (J/kgK)
  0.90   ,                                                                   ! Thermal Absorptance
  0.75   ,                                                                   ! Solar Absorptance
  0.75  ;                                                                    ! Visible Absorptance
  
 MATERIAL,
  mat-384,                                              ! Name
  
Smooth,                                    !-Roughness
0.01905,                                    ! Thickness (m)
  0.1154400034228,                                 ! Conductivity {W/m-K}
  512.5908326974,                                      ! Density (kg/m3)
  1381.644,                                 ! Specific Heat (J/kgK)
  0.90   ,                                                                   ! Thermal Absorptance
  0.75   ,                                                                   ! Solar Absorptance
  0.75  ;                                                                    ! Visible Absorptance
  
 MATERIAL,
  mat-391,                                              ! Name
  Smooth,   !-Roughness
0.01777,                                    ! Thickness (m)
  0.1154400034228,                                 ! Conductivity {W/m-K}
  512.5908326974,                                      ! Density (kg/m3)
  1256.04,                                 ! Specific Heat (J/kgK)
  0.90   ,                                                                   ! Thermal Absorptance
  0.75   ,                                                                   ! Solar Absorptance
  0.75  ;                                                                    ! Visible Absorptance
  
 MATERIAL:NoMass,                         
  mat-448,                                              ! Name
  Smooth,   !-Roughness
1.62549795183736;                                      ! Resistance {m2-K/w}
  
 MATERIAL,
  mat-353,                                              ! Name
  
Smooth,                                    !-Roughness
0.01588,                                    ! Thickness (m)
  0.1602660317384,                                 ! Conductivity {W/m-K}
  800.923176089688,                                      ! Density (kg/m3)
  837.36,                                 ! Specific Heat (J/kgK)
  0.90   ,                                                                   ! Thermal Absorptance
  0.75   ,                                                                   ! Solar Absorptance
  0.75  ;                                                                    ! Visible Absorptance
  
 MATERIAL:AirGap,
  mat-464,                                              ! Name
  0.10918837812992;                                      ! Resistance {m2-K/w}
  
 MATERIAL,
  mat-397,                                              ! Name
  Smooth,   !-Roughness
0.1015,                                    ! Thickness (m)
  0.12115142788,                                 ! Conductivity {W/m-K}
  592.683150306369,                                      ! Density (kg/m3)
  837.36,                                 ! Specific Heat (J/kgK)
  0.90   ,                                                                   ! Thermal Absorptance
  0.75   ,                                                                   ! Solar Absorptance
  0.75  ;                                                                    ! Visible Absorptance
  
 MATERIAL:NoMass,                         
  mat-488,                                              ! Name
  Smooth,   !-Roughness
0.0299387488420749;                                      ! Resistance {m2-K/w}
  
 MATERIAL,
  mat-161,                                              ! Name
  Smooth,   !-Roughness
0.0254,                                    ! Thickness (m)
  0.721,                                 ! Conductivity {W/m-K}
  2659,                                      ! Density (kg/m3)
  837,                                 ! Specific Heat (J/kgK)
  0.90   ,                                                                   ! Thermal Absorptance
  0.75   ,                                                                   ! Solar Absorptance