
! == Converted from gbXML file using Autodesk's Green Building Studio web service == !
! == gbXML2EnergyPlus stylesheet version 5.0.0.0                                  == !
! == Please see your Project End User License Agreement for use restrictions.     == !

  Version,  7.0;                                              !- Version Identifier

  ! ============== Run  Control ====================== !
  TIMESTEP,4;

  HeatBalanceAlgorithm,ConductionTransferFunction;

  SurfaceConvectionAlgorithm:Inside,TARP;

  SurfaceConvectionAlgorithm:Outside,DOE-2;

  SimulationControl,
  Yes,                                                         !- Do Zone Sizing Calculation
  Yes,                                                         !- Do System Sizing Calculation
  No,                                                          !- Do Plant Sizing Calculation
  Yes,                                                         !- Run Simulation for Sizing Periods
  Yes;                                                         !- Run Simulation for Weather File Run Periods

  RunPeriod,
  ,                                                            !- Name
  1,                                                           !- Begin Month
  1,                                                           !- Begin Day of Month
  12,                                                          !- End Month
  31,                                                          !- End Day of Month
  UseWeatherFile,                                              !- Day of Week for Start Day
  Yes,                                                         !- Use Weather File Holidays and Special Days
  Yes,                                                         !- Use Weather File Daylight Saving Period
  No,                                                          !- Apply Weekend Holiday Rule
  Yes,                                                         !- Use Weather File Rain Indicators
  Yes,                                                         !- Use Weather File Snow Indicators
  1;                                                           !- Number of Times Runperiod to be Repeated
  

! ============== Location  ====================== !

  
  ! Basic description:
  Site:Location,
  San Diego  TX United States,                !- Name
    27.764290,                               !- Latitude {deg}
    -98.239388,                              !- Longitude {deg}
    -8.186615666666666 ,                                                                         !-Time Zone {hr}
    44;                              !- Elevation {m}
  
! ============== Ground Temps  ====================== !

Site:GroundTemperature:BuildingSurface,18.89,18.92,19.02,19.12,19.21,19.23,19.07,19.32,19.09,19.21,19.13,18.96;                                                                      



! ============== Heating Design Day  ====================== !


SizingPeriod:DesignDay,
  GBS_04R20_150045 Winter,             !- Name
  -0.8,                !- Maximum Dry-Bulb Temperature {C}
  ,                                                                          !- Daily Dry-Bulb Temperature Range {deltaC}
  -0.8,                !- Wet-Bulb at Max {C}
  99400,                                                      !- Barometric Pressure {Pa}
  4.9,                              !- Wind Speed {m/s}
  360,                                !- Wind Direction {deg}
  ,                           !- Sky Clearness
  ,                                   !- Rain Indicator
  ,                                   !- Snow Indicator
  21,                                  !- Day of Month
  1,                                 !- Month
  WinterDesignDay,                                                           !- Day Type
   ,                              !- Daylight Saving Time Indicator
  Wet-Bulb ;                                                                 !- Humidity Indicating Type


! ============== Cooling-Design Day  ====================== !


SizingPeriod:DesignDay,
  GBS_04R20_150045 Summer,                  !- Name
  35.5,                     !- Maximum Dry-Bulb Temperature {C}
  11.0,                !- Daily Dry-Bulb Temperature Range {deltaC}
  25.4,                     !- Wet-Bulb at Max {C}
  99800,                                                           !- Barometric Pressure {Pa}}
  0,                                 !- Wind Speed {m/s}
  0,                                   !- Wind Direction {deg}
  ,                               !- Sky Clearness
  ,                                       !- Rain Indicator
  ,                                       !- Snow Indicator
  21,                                      !- Day of Month
  7,                                     !- Month
  SummerDesignDay,                                                               !- Day Type
  ,                                   !- Daylight Saving Time Indicator
  Wet-Bulb ;                                                                     !- Humidity Indicating Type

! ==============                ====================== !
! ============== Day Schedules  ====================== !
! ==============                ====================== !


  
  Schedule:Day:Interval,
  aim0017,                       !- Name
  Fraction,                     !- Schedule Type Limits Name
  NO,                                                 !- Interpolate to Timestep
  7:00, 0,
  8:00, 0.2,
  9:00, 0.5,
  18:00, 0.9,
  20:00, 0.6,
  21:00, 0.5,
  24:00, 0;
  
  
  Schedule:Day:Interval,
  aim0023,                       !- Name
  Fraction,                     !- Schedule Type Limits Name
  NO,                                                 !- Interpolate to Timestep
  7:00, 0,
  8:00, 0.1,
  9:00, 0.2,
  11:00, 0.5,
  15:00, 0.7,
  16:00, 0.8,
  17:00, 0.7,
  19:00, 0.5,
  21:00, 0.3,
  24:00, 0;
  
  
  Schedule:Day:Interval,
  ds-226-Equip,                       !- Name
  Fraction,                     !- Schedule Type Limits Name
  NO,                                                 !- Interpolate to Timestep
  7:00, 0.187807009,
  8:00, 0.2,
  9:00, 0.5,
  18:00, 0.9,
  20:00, 0.6,
  21:00, 0.5,
  24:00, 0.187807009;
  
  
  Schedule:Day:Interval,
  ds-224-Equip,                       !- Name
  Fraction,                     !- Schedule Type Limits Name
  NO,                                                 !- Interpolate to Timestep
  8:00, 0.187807009,
  9:00, 0.3,
  10:00, 0.6,
  18:00, 0.9,
  19:00, 0.5,
  21:00, 0.3,
  24:00, 0.187807009;
  
  
  Schedule:Day:Interval,
  ds-225-Equip,                       !- Name
  Fraction,                     !- Schedule Type Limits Name
  NO,                                                 !- Interpolate to Timestep
  10:00, 0.187807009,
  12:00, 0.4,
  17:00, 0.6,
  18:00, 0.4,
  19:00, 0.2,
  24:00, 0.187807009;
  
  
  Schedule:Day:Interval,
  ds-385-Equip,                       !- Name
  Fraction,                     !- Schedule Type Limits Name
  NO,                                                 !- Interpolate to Timestep
  8:00, 0.01,
  9:00, 0.03,
  11:00, 0.06,
  15:00, 0.09,
  16:00, 0.1,
  17:00, 0.09,
  19:00, 0.06,
  21:00, 0.04,
  24:00, 0.01;
  
  
  Schedule:Day:Interval,
  ds-383-Equip,                       !- Name
  Fraction,                     !- Schedule Type Limits Name
  NO,                                                 !- Interpolate to Timestep
  8:00, 0.01,
  9:00, 0.03,
  10:00, 0.06,
  11:00, 0.08,
  17:00, 0.1,
  18:00, 0.08,
  21:00, 0.03,
  24:00, 0.01;
  
  
  Schedule:Day:Interval,
  ds-384-Equip,                       !- Name
  Fraction,                     !- Schedule Type Limits Name
  NO,                                                 !- Interpolate to Timestep
  10:00, 0.01,
  12:00, 0.03,
  17:00, 0.05,
  18:00, 0.03,
  24:00, 0.01;
  
  
  Schedule:Day:Interval,
  ds-229-Fan,                       !- Name
  OnOff,                     !- Schedule Type Limits Name
  NO,                                                 !- Interpolate to Timestep
  7:00, 0,
  21:00, 1,
  24:00, 0;
  
  
  Schedule:Day:Interval,
  ds-227-Fan,                       !- Name
  OnOff,                     !- Schedule Type Limits Name
  NO,                                                 !- Interpolate to Timestep
  7:00, 0,
  22:00, 1,
  24:00, 0;
  
  
  Schedule:Day:Interval,
  ds-228-Fan,                       !- Name
  OnOff,                     !- Schedule Type Limits Name
  NO,                                                 !- Interpolate to Timestep
  9:00, 0,
  19:00, 1,
  24:00, 0;
  
  
  Schedule:Day:Interval,
  ds-229-Temp-On-21.1-Off-18.3,                       !- Name
  Temp,                     !- Schedule Type Limits Name
  NO,                                                 !- Interpolate to Timestep
  7:00, 18.3,
  21:00, 21.1,
  24:00, 18.3;
  
  
  Schedule:Day:Interval,
  ds-227-Temp-On-21.1-Off-18.3,                       !- Name
  Temp,                     !- Schedule Type Limits Name
  NO,                                                 !- Interpolate to Timestep
  7:00, 18.3,
  22:00, 21.1,
  24:00, 18.3;
  
  
  Schedule:Day:Interval,
  ds-228-Temp-On-21.1-Off-18.3,                       !- Name
  Temp,                     !- Schedule Type Limits Name
  NO,                                                 !- Interpolate to Timestep
  9:00, 18.3,
  19:00, 21.1,
  24:00, 18.3;
  
  
  Schedule:Day:Interval,
  ds-229-Temp-On-23.9-Off-29.4,                       !- Name
  Temp,                     !- Schedule Type Limits Name
  NO,                                                 !- Interpolate to Timestep
  7:00, 29.4,
  21:00, 23.9,
  24:00, 29.4;
  
  
  Schedule:Day:Interval,
  ds-227-Temp-On-23.9-Off-29.4,                       !- Name
  Temp,                     !- Schedule Type Limits Name
  NO,                                                 !- Interpolate to Timestep
  7:00, 29.4,
  22:00, 23.9,
  24:00, 29.4;
  
  
  Schedule:Day:Interval,
  ds-228-Temp-On-23.9-Off-29.4,                       !- Name
  Temp,                     !- Schedule Type Limits Name
  NO,                                                 !- Interpolate to Timestep
  9:00, 29.4,
  19:00, 23.9,
  24:00, 29.4;
  
  
  Schedule:Day:Interval,
  ds-229-Occ,                       !- Name
  Fraction,                     !- Schedule Type Limits Name
  NO,                                                 !- Interpolate to Timestep
  7:00, 0,
  8:00, 0.1,
  9:00, 0.2,
  11:00, 0.5,
  15:00, 0.7,
  16:00, 0.8,
  17:00, 0.7,
  19:00, 0.5,
  21:00, 0.3,
  24:00, 0;
  
  
  Schedule:Day:Interval,
  ds-227-Occ,                       !- Name
  Fraction,                     !- Schedule Type Limits Name
  NO,                                                 !- Interpolate to Timestep
  7:00, 0,
  8:00, 0.1,
  9:00, 0.2,
  10:00, 0.5,
  11:00, 0.6,
  17:00, 0.8,
  18:00, 0.6,
  21:00, 0.2,
  22:00, 0.1,
  24:00, 0;
  
  
  Schedule:Day:Interval,
  ds-228-Occ,                       !- Name
  Fraction,                     !- Schedule Type Limits Name
  NO,                                                 !- Interpolate to Timestep
  9:00, 0,
  10:00, 0.1,
  12:00, 0.2,
  17:00, 0.4,
  18:00, 0.2,
  19:00, 0.1,
  24:00, 0;
  
  
  Schedule:Day:Interval,
  ds-226-Light,                       !- Name
  Fraction,                     !- Schedule Type Limits Name
  NO,                                                 !- Interpolate to Timestep
  7:00, 0.14,
  8:00, 0.2,
  9:00, 0.5,
  18:00, 0.9,
  20:00, 0.6,
  21:00, 0.5,
  24:00, 0.14;
  
  
  Schedule:Day:Interval,
  ds-224-Light,                       !- Name
  Fraction,                     !- Schedule Type Limits Name
  NO,                                                 !- Interpolate to Timestep
  8:00, 0.14,
  9:00, 0.3,
  10:00, 0.6,
  18:00, 0.9,
  19:00, 0.5,
  21:00, 0.3,
  24:00, 0.14;
  
  
  Schedule:Day:Interval,
  ds-225-Light,                       !- Name
  Fraction,                     !- Schedule Type Limits Name
  NO,                                                 !- Interpolate to Timestep
  10:00, 0.14,
  12:00, 0.4,
  17:00, 0.6,
  18:00, 0.4,
  19:00, 0.2,
  24:00, 0.14;
  

! ==============                 ====================== !
! ============== Week Schedules  ====================== !
! ==============                 ====================== !

 
  Schedule:Week:Daily,
  aim0018,                                                          !- Name
  aim0017,                    !- Sunday Schedule:Day Name
    aim0017,                  !- Monday Schedule:Day Name
    aim0017,                  !- Tuesday Schedule:Day Name
    aim0017,                  !- Wednesday Schedule:Day Name
    aim0017,                  !- Thursday Schedule:Day Name
    aim0017,                  !- Friday Schedule:Day Name
    aim0017,                  !- Saturday Schedule:Day Name
    aim0017,                  !- Holiday Schedule:Day Name
    aim0017,                  !- CoolingDesignDay Schedule:Day Name
    aim0017,                  !- HeatingDesignDay Schedule:Day Name
    aim0017,                  !- CustomDay1 Schedule:Day Name
    aim0017;                  !- CustomDay2 Schedule:Day Name
  
  Schedule:Week:Daily,
  aim0024,                                                          !- Name
  aim0023,                    !- Sunday Schedule:Day Name
    aim0023,                  !- Monday Schedule:Day Name
    aim0023,                  !- Tuesday Schedule:Day Name
    aim0023,                  !- Wednesday Schedule:Day Name
    aim0023,                  !- Thursday Schedule:Day Name
    aim0023,                  !- Friday Schedule:Day Name
    aim0023,                  !- Saturday Schedule:Day Name
    aim0023,                  !- Holiday Schedule:Day Name
    aim0023,                  !- CoolingDesignDay Schedule:Day Name
    aim0023,                  !- HeatingDesignDay Schedule:Day Name
    aim0023,                  !- CustomDay1 Schedule:Day Name
    aim0023;                  !- CustomDay2 Schedule:Day Name
  
  Schedule:Week:Daily,
  ws-58-Equip,                                                          !- Name
  ds-225-Equip,                  !Sunday Schedule:Day Name
  ds-226-Equip,               !Monday Schedule:Day Name
  ds-226-Equip,               !Tuesday Schedule:Day Name
  ds-226-Equip,               !Wednesday Schedule:Day Name
  ds-226-Equip,               !Thursday Schedule:Day Name
  ds-226-Equip,               !Friday Schedule:Day Name
  ds-224-Equip,                     !Saturday Schedule:Day Name
  ds-225-Equip,                  !Holiday Schedule:Day Name
  ds-226-Equip,         !SummerDesignDay Schedule:Day Name
    ds-225-Equip,       !WinterDesignDay Schedule:Day Name

    ds-225-Equip,                      !CustomDay1 Schedule:Day Name
  ds-225-Equip;                      !CustomDay2 Schedule:Day Name
  
  Schedule:Week:Daily,
  ws-82-Equip,                                                          !- Name
  ds-384-Equip,                  !Sunday Schedule:Day Name
  ds-385-Equip,               !Monday Schedule:Day Name
  ds-385-Equip,               !Tuesday Schedule:Day Name
  ds-385-Equip,               !Wednesday Schedule:Day Name
  ds-385-Equip,               !Thursday Schedule:Day Name
  ds-385-Equip,               !Friday Schedule:Day Name
  ds-383-Equip,                     !Saturday Schedule:Day Name
  ds-384-Equip,                  !Holiday Schedule:Day Name
  ds-385-Equip,         !SummerDesignDay Schedule:Day Name
    ds-384-Equip,       !WinterDesignDay Schedule:Day Name

    ds-384-Equip,                      !CustomDay1 Schedule:Day Name
  ds-384-Equip;                      !CustomDay2 Schedule:Day Name
  
  Schedule:Week:Daily,
  ws-9-Fan,                                                          !- Name
  ds-228-Fan,                  !Sunday Schedule:Day Name
  ds-229-Fan,               !Monday Schedule:Day Name
  ds-229-Fan,               !Tuesday Schedule:Day Name
  ds-229-Fan,               !Wednesday Schedule:Day Name
  ds-229-Fan,               !Thursday Schedule:Day Name
  ds-229-Fan,               !Friday Schedule:Day Name
  ds-227-Fan,                     !Saturday Schedule:Day Name
  ds-228-Fan,                  !Holiday Schedule:Day Name
  ds-229-Fan,         !SummerDesignDay Schedule:Day Name
    ds-228-Fan,       !WinterDesignDay Schedule:Day Name

    ds-228-Fan,                      !CustomDay1 Schedule:Day Name
  ds-228-Fan;                      !CustomDay2 Schedule:Day Name
  
  Schedule:Week:Daily,
  ws-9-Temp-On-21.1-Off-18.3,                                                          !- Name
  ds-228-Temp-On-21.1-Off-18.3,                  !Sunday Schedule:Day Name
  ds-229-Temp-On-21.1-Off-18.3,               !Monday Schedule:Day Name
  ds-229-Temp-On-21.1-Off-18.3,               !Tuesday Schedule:Day Name
  ds-229-Temp-On-21.1-Off-18.3,               !Wednesday Schedule:Day Name
  ds-229-Temp-On-21.1-Off-18.3,               !Thursday Schedule:Day Name
  ds-229-Temp-On-21.1-Off-18.3,               !Friday Schedule:Day Name
  ds-227-Temp-On-21.1-Off-18.3,                     !Saturday Schedule:Day Name
  ds-228-Temp-On-21.1-Off-18.3,                  !Holiday Schedule:Day Name
  ds-229-Temp-On-21.1-Off-18.3,         !SummerDesignDay Schedule:Day Name
    ds-228-Temp-On-21.1-Off-18.3,       !WinterDesignDay Schedule:Day Name

    ds-228-Temp-On-21.1-Off-18.3,                      !CustomDay1 Schedule:Day Name
  ds-228-Temp-On-21.1-Off-18.3;                      !CustomDay2 Schedule:Day Name
  
  Schedule:Week:Daily,
  ws-9-Temp-On-23.9-Off-29.4,                                                          !- Name
  ds-228-Temp-On-23.9-Off-29.4,                  !Sunday Schedule:Day Name
  ds-229-Temp-On-23.9-Off-29.4,               !Monday Schedule:Day Name
  ds-229-Temp-On-23.9-Off-29.4,               !Tuesday Schedule:Day Name
  ds-229-Temp-On-23.9-Off-29.4,               !Wednesday Schedule:Day Name
  ds-229-Temp-On-23.9-Off-29.4,               !Thursday Schedule:Day Name
  ds-229-Temp-On-23.9-Off-29.4,               !Friday Schedule:Day Name
  ds-227-Temp-On-23.9-Off-29.4,                     !Saturday Schedule:Day Name
  ds-228-Temp-On-23.9-Off-29.4,                  !Holiday Schedule:Day Name
  ds-229-Temp-On-23.9-Off-29.4,         !SummerDesignDay Schedule:Day Name
    ds-228-Temp-On-23.9-Off-29.4,       !WinterDesignDay Schedule:Day Name

    ds-228-Temp-On-23.9-Off-29.4,                      !CustomDay1 Schedule:Day Name
  ds-228-Temp-On-23.9-Off-29.4;                      !CustomDay2 Schedule:Day Name
  
  Schedule:Week:Daily,
  ws-9-Occ,                                                          !- Name
  ds-228-Occ,                  !Sunday Schedule:Day Name
  ds-229-Occ,               !Monday Schedule:Day Name
  ds-229-Occ,               !Tuesday Schedule:Day Name
  ds-229-Occ,               !Wednesday Schedule:Day Name
  ds-229-Occ,               !Thursday Schedule:Day Name
  ds-229-Occ,               !Friday Schedule:Day Name
  ds-227-Occ,                     !Saturday Schedule:Day Name
  ds-228-Occ,                  !Holiday Schedule:Day Name
  ds-229-Occ,         !SummerDesignDay Schedule:Day Name
    ds-228-Occ,       !WinterDesignDay Schedule:Day Name

    ds-228-Occ,                      !CustomDay1 Schedule:Day Name
  ds-228-Occ;                      !CustomDay2 Schedule:Day Name
  
  Schedule:Week:Daily,
  ws-58-Light,                                                          !- Name
  ds-225-Light,                  !Sunday Schedule:Day Name
  ds-226-Light,               !Monday Schedule:Day Name
  ds-226-Light,               !Tuesday Schedule:Day Name
  ds-226-Light,               !Wednesday Schedule:Day Name
  ds-226-Light,               !Thursday Schedule:Day Name
  ds-226-Light,               !Friday Schedule:Day Name
  ds-224-Light,                     !Saturday Schedule:Day Name
  ds-225-Light,                  !Holiday Schedule:Day Name
  ds-226-Light,         !SummerDesignDay Schedule:Day Name
    ds-225-Light,       !WinterDesignDay Schedule:Day Name

    ds-225-Light,                      !CustomDay1 Schedule:Day Name
  ds-225-Light;                      !CustomDay2 Schedule:Day Name
  
! ==============            ====================== !
! ============== Schedules  ====================== !
! ==============            ====================== !


Schedule:Year,
aim0020,                                                                      !-Name
Fraction,                                                                    !-Type
aim0018,                   !-Week Schedule
01,                          !-Start Month 1
01,                          !-Start Day 1
12,                            !-End Month 1
31;                            !-End Day 1

Schedule:Year,
aim0026,                                                                      !-Name
Fraction,                                                                    !-Type
aim0024,                   !-Week Schedule
01,                          !-Start Month 1
01,                          !-Start Day 1
12,                            !-End Month 1
31;                            !-End Day 1

Schedule:Year,
EquipSched-7,                                                                      !-Name
Fraction,                                                                    !-Type
ws-58-Equip,                   !-Week Schedule
01,                          !-Start Month 1
01,                          !-Start Day 1
12,                            !-End Month 1
31;                            !-End Day 1

Schedule:Year,
EquipSched-54,                                                                      !-Name
Fraction,                                                                    !-Type
ws-82-Equip,                   !-Week Schedule
01,                          !-Start Month 1
01,                          !-Start Day 1
12,                            !-End Month 1
31;                            !-End Day 1

Schedule:Year,
FanSch-17,                                                                      !-Name
OnOff,                                                                    !-Type
ws-9-Fan,                   !-Week Schedule
01,                          !-Start Month 1
01,                          !-Start Day 1
12,                            !-End Month 1
31;                            !-End Day 1

Schedule:Year,
Heatsched-9,                                                                      !-Name
Temp,                                                                    !-Type
ws-9-Temp-On-21.1-Off-18.3,                   !-Week Schedule
01,                          !-Start Month 1
01,                          !-Start Day 1
12,                            !-End Month 1
31;                            !-End Day 1

Schedule:Year,
Coolsched-9,                                                                      !-Name
Temp,                                                                    !-Type
ws-9-Temp-On-23.9-Off-29.4,                   !-Week Schedule
01,                          !-Start Month 1
01,                          !-Start Day 1
12,                            !-End Month 1
31;                            !-End Day 1

Schedule:Year,
peopleSched-17,                                                                      !-Name
Fraction,                                                                    !-Type
ws-9-Occ,                   !-Week Schedule
01,                          !-Start Month 1
01,                          !-Start Day 1
12,                            !-End Month 1
31;                            !-End Day 1

Schedule:Year,
LightSched-7,                                                                      !-Name
Fraction,                                                                    !-Type
ws-58-Light,                   !-Week Schedule
01,                          !-Start Month 1
01,                          !-Start Day 1
12,                            !-End Month 1
31;                            !-End Day 1

Schedule:Year,
DHWSchedule-17,                                                                      !-Name
Fraction,                                                                    !-Type
ws-9-Occ,                   !-Week Schedule
01,                          !-Start Month 1
01,                          !-Start Day 1
12,                            !-End Month 1
31;                            !-End Day 1

  ! ==============             ====================== !
  ! ==============  Materials  ====================== !
  ! ==============             ====================== !
  
 MATERIAL,
  mat-391,                                              ! Name
  Smooth,   !-Roughness
0.01777,                                    ! Thickness (m)
  0.1154400034228,                                 ! Conductivity {W/m-K}
  512.5908326974,                                      ! Density (kg/m3)
  1256.04,                                 ! Specific Heat (J/kgK)
  0.90   ,                                                                   ! Thermal Absorptance
  0.75   ,                                                                   ! Solar Absorptance
  0.75  ;                                                                    ! Visible Absorptance
  
 MATERIAL:NoMass,                         
  mat-244,                                              ! Name
  
Smooth,                                    !-Roughness
0.0105666172383794;                                      ! Resistance {m2-K/w}
  
 MATERIAL,
  mat-384,                                              ! Name
  
Smooth,                                    !-Roughness
0.01905,                                    ! Thickness (m)
  0.1154400034228,                                 ! Conductivity {W/m-K}
  512.5908326974,                                      ! Density (kg/m3)
  1381.644,                                 ! Specific Heat (J/kgK)
  0.90   ,                                                                   ! Thermal Absorptance
  0.75   ,                                                                   ! Solar Absorptance
  0.75  ;                                                                    ! Visible Absorptance
  
 MATERIAL:NoMass,                         
  mat-448,                                              ! Name
  Smooth,   !-Roughness
1.62549795183736;                                      ! Resistance {m2-K/w}
  
 MATERIAL,
  mat-353,                                              ! Name
  
Smooth,                                    !-Roughness
0.01588,                                    ! Thickness (m)
  0.1602660317384,                                 ! Conductivity {W/m-K}
  800.923176089688,                                      ! Density (kg/m3)
  837.36,                                 ! Specific Heat (J/kgK)
  0.90   ,                                                                   ! Thermal Absorptance
  0.75   ,                                                                   ! Solar Absorptance
  0.75  ;                                                                    ! Visible Absorptance
  
 MATERIAL:AirGap,
  mat-464,                                              ! Name
  0.10918837812992;                                      ! Resistance {m2-K/w}
  
 MATERIAL,
  mat-247,                                              ! Name
  Smooth,   !-Roughness
0.00954,                                    ! Thickness (m)
  0.1625159868276,                                 ! Conductivity {W/m-K}
  1121.29244652556,                                      ! Density (kg/m3)
  1465.38,                                 ! Specific Heat (J/kgK)
  0.90   ,                                                                   ! Thermal Absorptance
  0.75   ,                                                                   ! Solar Absorptance
  0.75  ;                                                                    ! Visible Absorptance
  
 MATERIAL,
  mat-416,                                              ! Name
  Smooth,   !-Roughness
0.0762,                                    ! Thickness (m)
  0.041537632416,                                 ! Conductivity {W/m-K}
  240.276952826906,                                      ! Density (kg/m3)
  711.756,                                 ! Specific Heat (J/kgK)
  0.90   ,                                                                   ! Thermal Absorptance
  0.75   ,                                                                   ! Solar Absorptance
  0.75  ;                                                                    ! Visible Absorptance
  
 MATERIAL,
  mat-266,                                              ! Name
  
MediumRough,                               !-Roughness
0.20321,                                    ! Thickness (m)
  1.3112045965984,                                 ! Conductivity {W/m-K}
  2242.58489305113,                                      ! Density (kg/m3)
  837.36,                                 ! Specific Heat (J/kgK)
  0.90   ,                                                                   ! Thermal Absorptance
  0.75   ,                                                                   ! Solar Absorptance
  0.75  ;                                                                    ! Visible Absorptance
  
 MATERIAL,
  mat-420,                                              ! Name
  Smooth,   !-Roughness
0.03176,                                    ! Thickness (m)
  0.03461469368,                                 ! Conductivity {W/m-K}
  28.8332343392288,                                      ! Density (kg/m3)
  1214.172,                                 ! Specific Heat (J/kgK)
  0.90   ,                                                                   ! Thermal Absorptance
  0.75   ,                                                                   ! Solar Absorptance