
! == Converted from gbXML file using Autodesk's Green Building Studio web service == !
! == gbXML2EnergyPlus stylesheet version 5.0.0.0                                  == !
! == Please see your Project End User License Agreement for use restrictions.     == !

  Version,  7.0;                                              !- Version Identifier

  ! ============== Run  Control ====================== !
  TIMESTEP,4;

  HeatBalanceAlgorithm,ConductionTransferFunction;

  SurfaceConvectionAlgorithm:Inside,TARP;

  SurfaceConvectionAlgorithm:Outside,DOE-2;

  SimulationControl,
  Yes,                                                         !- Do Zone Sizing Calculation
  Yes,                                                         !- Do System Sizing Calculation
  No,                                                          !- Do Plant Sizing Calculation
  Yes,                                                         !- Run Simulation for Sizing Periods
  Yes;                                                         !- Run Simulation for Weather File Run Periods

  RunPeriod,
  ,                                                            !- Name
  1,                                                           !- Begin Month
  1,                                                           !- Begin Day of Month
  12,                                                          !- End Month
  31,                                                          !- End Day of Month
  UseWeatherFile,                                              !- Day of Week for Start Day
  Yes,                                                         !- Use Weather File Holidays and Special Days
  Yes,                                                         !- Use Weather File Daylight Saving Period
  No,                                                          !- Apply Weekend Holiday Rule
  Yes,                                                         !- Use Weather File Rain Indicators
  Yes,                                                         !- Use Weather File Snow Indicators
  1;                                                           !- Number of Times Runperiod to be Repeated
  

! ============== Location  ====================== !

  
  ! Basic description:
  Site:Location,
  Skykomish  WA United States,                !- Name
    47.579201,                               !- Latitude {deg}
    -121.501602,                              !- Longitude {deg}
    -10.1251335 ,                                                                         !-Time Zone {hr}
    91;                              !- Elevation {m}
  
! ============== Ground Temps  ====================== !

Site:GroundTemperature:BuildingSurface,18.89,18.92,19.02,19.12,19.21,19.23,19.07,19.32,19.09,19.21,19.13,18.96;                                                                      



! ============== Heating Design Day  ====================== !


SizingPeriod:DesignDay,
  GBS_04R20_056168 Winter,             !- Name
  -16.1,                !- Maximum Dry-Bulb Temperature {C}
  ,                                                                          !- Daily Dry-Bulb Temperature Range {deltaC}
  -16.1,                !- Wet-Bulb at Max {C}
  99400,                                                      !- Barometric Pressure {Pa}
  5.9,                              !- Wind Speed {m/s}
  90,                                !- Wind Direction {deg}
  ,                           !- Sky Clearness
  ,                                   !- Rain Indicator
  ,                                   !- Snow Indicator
  21,                                  !- Day of Month
  1,                                 !- Month
  WinterDesignDay,                                                           !- Day Type
   ,                              !- Daylight Saving Time Indicator
  Wet-Bulb ;                                                                 !- Humidity Indicating Type


! ============== Cooling-Design Day  ====================== !


SizingPeriod:DesignDay,
  GBS_04R20_056168 Summer,                  !- Name
  23.6,                     !- Maximum Dry-Bulb Temperature {C}
  8.9,                !- Daily Dry-Bulb Temperature Range {deltaC}
  13.2,                     !- Wet-Bulb at Max {C}
  99800,                                                           !- Barometric Pressure {Pa}}
  0,                                 !- Wind Speed {m/s}
  0,                                   !- Wind Direction {deg}
  ,                               !- Sky Clearness
  ,                                       !- Rain Indicator
  ,                                       !- Snow Indicator
  21,                                      !- Day of Month
  7,                                     !- Month
  SummerDesignDay,                                                               !- Day Type
  ,                                   !- Daylight Saving Time Indicator
  Wet-Bulb ;                                                                     !- Humidity Indicating Type

! ==============                ====================== !
! ============== Day Schedules  ====================== !
! ==============                ====================== !


  
  Schedule:Day:Interval,
  aim0086,                       !- Name
  Fraction,                     !- Schedule Type Limits Name
  NO,                                                 !- Interpolate to Timestep
  6:00, 0,
  7:00, 0.1,
  8:00, 0.3,
  12:00, 0.9,
  13:00, 0.8,
  17:00, 0.9,
  18:00, 0.5,
  20:00, 0.3,
  22:00, 0.2,
  24:00, 0;
  
  
  Schedule:Day:Interval,
  aim0092,                       !- Name
  Fraction,                     !- Schedule Type Limits Name
  NO,                                                 !- Interpolate to Timestep
  7:00, 0,
  8:00, 0.1,
  9:00, 0.2,
  11:00, 0.95,
  13:00, 0.45,
  18:00, 0.95,
  19:00, 0.3,
  22:00, 0.1,
  24:00, 0;
  
  
  Schedule:Day:Interval,
  ds-202-Equip,                       !- Name
  Fraction,                     !- Schedule Type Limits Name
  NO,                                                 !- Interpolate to Timestep
  7:00, 0.210979924,
  8:00, 0.3,
  12:00, 0.9,
  13:00, 0.8,
  17:00, 0.9,
  18:00, 0.5,
  20:00, 0.3,
  22:00, 0.2,
  24:00, 0.210979924;
  
  
  Schedule:Day:Interval,
  ds-200-Equip,                       !- Name
  Fraction,                     !- Schedule Type Limits Name
  NO,                                                 !- Interpolate to Timestep
  8:00, 0.210979924,
  12:00, 0.3,
  17:00, 0.15,
  24:00, 0.210979924;
  
  
  Schedule:Day:Interval,
  ds-201-Equip,                       !- Name
  Fraction,                     !- Schedule Type Limits Name
  NO,                                                 !- Interpolate to Timestep
  24:00, 0.210979924;
  
  
  Schedule:Day:Interval,
  ds-431-Fan,                       !- Name
  OnOff,                     !- Schedule Type Limits Name
  NO,                                                 !- Interpolate to Timestep
  5:00, 0,
  22:00, 1,
  24:00, 0;
  
  
  Schedule:Day:Interval,
  ds-432-Fan,                       !- Name
  OnOff,                     !- Schedule Type Limits Name
  NO,                                                 !- Interpolate to Timestep
  8:00, 0,
  24:00, 1;
  
  
  Schedule:Day:Interval,
  ds-433-Fan,                       !- Name
  OnOff,                     !- Schedule Type Limits Name
  NO,                                                 !- Interpolate to Timestep
  24:00, 0;
  
  
  Schedule:Day:Interval,
  ds-431-Temp-On-21.1-Off-18.3,                       !- Name
  Temp,                     !- Schedule Type Limits Name
  NO,                                                 !- Interpolate to Timestep
  5:00, 18.3,
  22:00, 21.1,
  24:00, 18.3;
  
  
  Schedule:Day:Interval,
  ds-432-Temp-On-21.1-Off-18.3,                       !- Name
  Temp,                     !- Schedule Type Limits Name
  NO,                                                 !- Interpolate to Timestep
  8:00, 18.3,
  24:00, 21.1;
  
  
  Schedule:Day:Interval,
  ds-433-Temp-On-21.1-Off-18.3,                       !- Name
  Temp,                     !- Schedule Type Limits Name
  NO,                                                 !- Interpolate to Timestep
  24:00, 18.3;
  
  
  Schedule:Day:Interval,
  ds-431-Temp-On-23.9-Off-29.4,                       !- Name
  Temp,                     !- Schedule Type Limits Name
  NO,                                                 !- Interpolate to Timestep
  5:00, 29.4,
  22:00, 23.9,
  24:00, 29.4;
  
  
  Schedule:Day:Interval,
  ds-432-Temp-On-23.9-Off-29.4,                       !- Name
  Temp,                     !- Schedule Type Limits Name
  NO,                                                 !- Interpolate to Timestep
  8:00, 29.4,
  24:00, 23.9;
  
  
  Schedule:Day:Interval,
  ds-433-Temp-On-23.9-Off-29.4,                       !- Name
  Temp,                     !- Schedule Type Limits Name
  NO,                                                 !- Interpolate to Timestep
  24:00, 29.4;
  
  
  Schedule:Day:Interval,
  ds-434-Equip,                       !- Name
  Fraction,                     !- Schedule Type Limits Name
  NO,                                                 !- Interpolate to Timestep
  5:00, 0.21,
  6:00, 0.22,
  7:00, 0.3,
  8:00, 0.41,
  11:00, 0.52,
  12:00, 0.48,
  13:00, 0.47,
  14:00, 0.49,
  16:00, 0.52,
  17:00, 0.41,
  18:00, 0.3,
  19:00, 0.26,
  20:00, 0.24,
  24:00, 0.21;
  
  
  Schedule:Day:Interval,
  ds-435-Equip,                       !- Name
  Fraction,                     !- Schedule Type Limits Name
  NO,                                                 !- Interpolate to Timestep
  24:00, 0.21;
  
  
  Schedule:Day:Interval,
  ds-436-Equip,                       !- Name
  Fraction,                     !- Schedule Type Limits Name
  NO,                                                 !- Interpolate to Timestep
  24:00, 0.21;
  
  
  Schedule:Day:Interval,
  ds-205-Occ,                       !- Name
  Fraction,                     !- Schedule Type Limits Name
  NO,                                                 !- Interpolate to Timestep
  7:00, 0,
  8:00, 0.1,
  9:00, 0.2,
  11:00, 0.95,
  13:00, 0.45,
  18:00, 0.95,
  19:00, 0.3,
  22:00, 0.1,
  24:00, 0;
  
  
  Schedule:Day:Interval,
  ds-203-Occ,                       !- Name
  Fraction,                     !- Schedule Type Limits Name
  NO,                                                 !- Interpolate to Timestep
  7:00, 0,
  9:00, 0.1,
  13:00, 0.3,
  18:00, 0.1,
  24:00, 0;
  
  
  Schedule:Day:Interval,
  ds-204-Occ,                       !- Name
  Fraction,                     !- Schedule Type Limits Name
  NO,                                                 !- Interpolate to Timestep
  24:00, 0;
  

! ==============                 ====================== !
! ============== Week Schedules  ====================== !
! ==============                 ====================== !

 
  Schedule:Week:Daily,
  aim0087,                                                          !- Name
  aim0086,                    !- Sunday Schedule:Day Name
    aim0086,                  !- Monday Schedule:Day Name
    aim0086,                  !- Tuesday Schedule:Day Name
    aim0086,                  !- Wednesday Schedule:Day Name
    aim0086,                  !- Thursday Schedule:Day Name
    aim0086,                  !- Friday Schedule:Day Name
    aim0086,                  !- Saturday Schedule:Day Name
    aim0086,                  !- Holiday Schedule:Day Name
    aim0086,                  !- CoolingDesignDay Schedule:Day Name
    aim0086,                  !- HeatingDesignDay Schedule:Day Name
    aim0086,                  !- CustomDay1 Schedule:Day Name
    aim0086;                  !- CustomDay2 Schedule:Day Name
  
  Schedule:Week:Daily,
  aim0093,                                                          !- Name
  aim0092,                    !- Sunday Schedule:Day Name
    aim0092,                  !- Monday Schedule:Day Name
    aim0092,                  !- Tuesday Schedule:Day Name
    aim0092,                  !- Wednesday Schedule:Day Name
    aim0092,                  !- Thursday Schedule:Day Name
    aim0092,                  !- Friday Schedule:Day Name
    aim0092,                  !- Saturday Schedule:Day Name
    aim0092,                  !- Holiday Schedule:Day Name
    aim0092,                  !- CoolingDesignDay Schedule:Day Name
    aim0092,                  !- HeatingDesignDay Schedule:Day Name
    aim0092,                  !- CustomDay1 Schedule:Day Name
    aim0092;                  !- CustomDay2 Schedule:Day Name
  
  Schedule:Week:Daily,
  ws-57-Equip,                                                          !- Name
  ds-201-Equip,                  !Sunday Schedule:Day Name
  ds-202-Equip,               !Monday Schedule:Day Name
  ds-202-Equip,               !Tuesday Schedule:Day Name
  ds-202-Equip,               !Wednesday Schedule:Day Name
  ds-202-Equip,               !Thursday Schedule:Day Name
  ds-202-Equip,               !Friday Schedule:Day Name
  ds-200-Equip,                     !Saturday Schedule:Day Name
  ds-201-Equip,                  !Holiday Schedule:Day Name
  ds-202-Equip,         !SummerDesignDay Schedule:Day Name
    ds-201-Equip,       !WinterDesignDay Schedule:Day Name

    ds-201-Equip,                      !CustomDay1 Schedule:Day Name
  ds-201-Equip;                      !CustomDay2 Schedule:Day Name
  
  Schedule:Week:Daily,
  ws-109-Fan,                                                          !- Name
  ds-433-Fan,                  !Sunday Schedule:Day Name
  ds-431-Fan,               !Monday Schedule:Day Name
  ds-431-Fan,               !Tuesday Schedule:Day Name
  ds-431-Fan,               !Wednesday Schedule:Day Name
  ds-431-Fan,               !Thursday Schedule:Day Name
  ds-431-Fan,               !Friday Schedule:Day Name
  ds-432-Fan,                     !Saturday Schedule:Day Name
  ds-433-Fan,                  !Holiday Schedule:Day Name
  ds-431-Fan,         !SummerDesignDay Schedule:Day Name
    ds-433-Fan,       !WinterDesignDay Schedule:Day Name

    ds-433-Fan,                      !CustomDay1 Schedule:Day Name
  ds-433-Fan;                      !CustomDay2 Schedule:Day Name
  
  Schedule:Week:Daily,
  ws-109-Temp-On-21.1-Off-18.3,                                                          !- Name
  ds-433-Temp-On-21.1-Off-18.3,                  !Sunday Schedule:Day Name
  ds-431-Temp-On-21.1-Off-18.3,               !Monday Schedule:Day Name
  ds-431-Temp-On-21.1-Off-18.3,               !Tuesday Schedule:Day Name
  ds-431-Temp-On-21.1-Off-18.3,               !Wednesday Schedule:Day Name
  ds-431-Temp-On-21.1-Off-18.3,               !Thursday Schedule:Day Name
  ds-431-Temp-On-21.1-Off-18.3,               !Friday Schedule:Day Name
  ds-432-Temp-On-21.1-Off-18.3,                     !Saturday Schedule:Day Name
  ds-433-Temp-On-21.1-Off-18.3,                  !Holiday Schedule:Day Name
  ds-431-Temp-On-21.1-Off-18.3,         !SummerDesignDay Schedule:Day Name
    ds-433-Temp-On-21.1-Off-18.3,       !WinterDesignDay Schedule:Day Name

    ds-433-Temp-On-21.1-Off-18.3,                      !CustomDay1 Schedule:Day Name
  ds-433-Temp-On-21.1-Off-18.3;                      !CustomDay2 Schedule:Day Name
  
  Schedule:Week:Daily,
  ws-109-Temp-On-23.9-Off-29.4,                                                          !- Name
  ds-433-Temp-On-23.9-Off-29.4,                  !Sunday Schedule:Day Name
  ds-431-Temp-On-23.9-Off-29.4,               !Monday Schedule:Day Name
  ds-431-Temp-On-23.9-Off-29.4,               !Tuesday Schedule:Day Name
  ds-431-Temp-On-23.9-Off-29.4,               !Wednesday Schedule:Day Name
  ds-431-Temp-On-23.9-Off-29.4,               !Thursday Schedule:Day Name
  ds-431-Temp-On-23.9-Off-29.4,               !Friday Schedule:Day Name
  ds-432-Temp-On-23.9-Off-29.4,                     !Saturday Schedule:Day Name
  ds-433-Temp-On-23.9-Off-29.4,                  !Holiday Schedule:Day Name
  ds-431-Temp-On-23.9-Off-29.4,         !SummerDesignDay Schedule:Day Name
    ds-433-Temp-On-23.9-Off-29.4,       !WinterDesignDay Schedule:Day Name

    ds-433-Temp-On-23.9-Off-29.4,                      !CustomDay1 Schedule:Day Name
  ds-433-Temp-On-23.9-Off-29.4;                      !CustomDay2 Schedule:Day Name
  
  Schedule:Week:Daily,
  ws-110-Equip,                                                          !- Name
  ds-436-Equip,                  !Sunday Schedule:Day Name
  ds-434-Equip,               !Monday Schedule:Day Name
  ds-434-Equip,               !Tuesday Schedule:Day Name
  ds-434-Equip,               !Wednesday Schedule:Day Name
  ds-434-Equip,               !Thursday Schedule:Day Name
  ds-434-Equip,               !Friday Schedule:Day Name
  ds-435-Equip,                     !Saturday Schedule:Day Name
  ds-436-Equip,                  !Holiday Schedule:Day Name
  ds-434-Equip,         !SummerDesignDay Schedule:Day Name
    ds-436-Equip,       !WinterDesignDay Schedule:Day Name

    ds-436-Equip,                      !CustomDay1 Schedule:Day Name
  ds-436-Equip;                      !CustomDay2 Schedule:Day Name
  
  Schedule:Week:Daily,
  ws-11-Occ,                                                          !- Name
  ds-204-Occ,                  !Sunday Schedule:Day Name
  ds-205-Occ,               !Monday Schedule:Day Name
  ds-205-Occ,               !Tuesday Schedule:Day Name
  ds-205-Occ,               !Wednesday Schedule:Day Name
  ds-205-Occ,               !Thursday Schedule:Day Name
  ds-205-Occ,               !Friday Schedule:Day Name
  ds-203-Occ,                     !Saturday Schedule:Day Name
  ds-204-Occ,                  !Holiday Schedule:Day Name
  ds-205-Occ,         !SummerDesignDay Schedule:Day Name
    ds-204-Occ,       !WinterDesignDay Schedule:Day Name

    ds-204-Occ,                      !CustomDay1 Schedule:Day Name
  ds-204-Occ;                      !CustomDay2 Schedule:Day Name
  
! ==============            ====================== !
! ============== Schedules  ====================== !
! ==============            ====================== !


Schedule:Year,
aim0089,                                                                      !-Name
Fraction,                                                                    !-Type
aim0087,                   !-Week Schedule
01,                          !-Start Month 1
01,                          !-Start Day 1
12,                            !-End Month 1
31;                            !-End Day 1

Schedule:Year,
aim0095,                                                                      !-Name
Fraction,                                                                    !-Type
aim0093,                   !-Week Schedule
01,                          !-Start Month 1
01,                          !-Start Day 1
12,                            !-End Month 1
31;                            !-End Day 1

Schedule:Year,
EquipSched-6,                                                                      !-Name
Fraction,                                                                    !-Type
ws-57-Equip,                   !-Week Schedule
01,                          !-Start Month 1
01,                          !-Start Day 1
12,                            !-End Month 1
31;                            !-End Day 1

Schedule:Year,
FanSch-83,                                                                      !-Name
OnOff,                                                                    !-Type
ws-109-Fan,                   !-Week Schedule
01,                          !-Start Month 1
01,                          !-Start Day 1
12,                            !-End Month 1
31;                            !-End Day 1

Schedule:Year,
Heatsched-9,                                                                      !-Name
Temp,                                                                    !-Type
ws-109-Temp-On-21.1-Off-18.3,                   !-Week Schedule
01,                          !-Start Month 1
01,                          !-Start Day 1
12,                            !-End Month 1
31;                            !-End Day 1

Schedule:Year,
Coolsched-9,                                                                      !-Name
Temp,                                                                    !-Type
ws-109-Temp-On-23.9-Off-29.4,                   !-Week Schedule
01,                          !-Start Month 1
01,                          !-Start Day 1
12,                            !-End Month 1
31;                            !-End Day 1

Schedule:Year,
EquipSched-84,                                                                      !-Name
Fraction,                                                                    !-Type
ws-110-Equip,                   !-Week Schedule
01,                          !-Start Month 1
01,                          !-Start Day 1
12,                            !-End Month 1
31;                            !-End Day 1

Schedule:Year,
DHWSchedule-19,                                                                      !-Name
Fraction,                                                                    !-Type
ws-11-Occ,                   !-Week Schedule
01,                          !-Start Month 1
01,                          !-Start Day 1
12,                            !-End Month 1
31;                            !-End Day 1

  ! ==============             ====================== !
  ! ==============  Materials  ====================== !
  ! ==============             ====================== !
  
 MATERIAL,
  aim0017,                                              ! Name
  
Rough,                                     !-Roughness
0.0127,                                    ! Thickness (m)
  0.06,                                 ! Conductivity {W/m-K}
  288,                                      ! Density (kg/m3)
  1380,                                 ! Specific Heat (J/kgK)
  0.90   ,                                                                   ! Thermal Absorptance
  0.75   ,                                                                   ! Solar Absorptance
  0.75  ;                                                                    ! Visible Absorptance
  
 MATERIAL,
  aim0023,                                              ! Name
  
Rough,                                     !-Roughness
0.2,                                    ! Thickness (m)
  1.9,                                 ! Conductivity {W/m-K}
  2300,                                      ! Density (kg/m3)
  840,                                 ! Specific Heat (J/kgK)
  0.90   ,                                                                   ! Thermal Absorptance
  0.75   ,                                                                   ! Solar Absorptance
  0.75  ;                                                                    ! Visible Absorptance
  
 MATERIAL,
  aim0033,                                              ! Name
  
Rough,                                     !-Roughness
0.2032,                                    ! Thickness (m)
  0.53,                                 ! Conductivity {W/m-K}
  1280,                                      ! Density (kg/m3)
  840,                                 ! Specific Heat (J/kgK)
  0.90   ,                                                                   ! Thermal Absorptance
  0.75   ,                                                                   ! Solar Absorptance
  0.75  ;                                                                    ! Visible Absorptance
  
 MATERIAL,
  aim0044,                                              ! Name
  
Rough,                                     !-Roughness
0.0008,                                    ! Thickness (m)
  45.28,                                 ! Conductivity {W/m-K}
  7824,                                      ! Density (kg/m3)
  500,                                 ! Specific Heat (J/kgK)
  0.90   ,                                                                   ! Thermal Absorptance
  0.75   ,                                                                   ! Solar Absorptance
  0.75  ;                                                                    ! Visible Absorptance
  
 MATERIAL,
  aim0050,                                              ! Name
  
Rough,                                     !-Roughness
0.0376,                                    ! Thickness (m)
  0.15,                                 ! Conductivity {W/m-K}
  608,                                      ! Density (kg/m3)
  1630,                                 ! Specific Heat (J/kgK)
  0.90   ,                                                                   ! Thermal Absorptance
  0.75   ,                                                                   ! Solar Absorptance
  0.75  ;                                                                    ! Visible Absorptance
  
 MATERIAL,
  aim0061,                                              ! Name
  
Rough,                                     !-Roughness
0.1016,                                    ! Thickness (m)
  0.89,                                 ! Conductivity {W/m-K}
  1920,                                      ! Density (kg/m3)
  790,                                 ! Specific Heat (J/kgK)
  0.90   ,                                                                   ! Thermal Absorptance
  0.75   ,                                                                   ! Solar Absorptance
  0.75  ;                                                                    ! Visible Absorptance
  
 MATERIAL,
  mat-266,                                              ! Name
  Smooth,   !-Roughness
0.20321,                                    ! Thickness (m)
  1.3112045965984,                                 ! Conductivity {W/m-K}
  2242.58489305113,                                      ! Density (kg/m3)
  837.36,                                 ! Specific Heat (J/kgK)
  0.90   ,                                                                   ! Thermal Absorptance
  0.75   ,                                                                   ! Solar Absorptance
  0.75  ;                                                                    ! Visible Absorptance
  
 MATERIAL,
  mat-420,                                              ! Name
  Smooth,   !-Roughness
0.03176,                                    ! Thickness (m)
  0.03461469368,                                 ! Conductivity {W/m-K}
  28.8332343392288,                                      ! Density (kg/m3)
  1214.172,                                 ! Specific Heat (J/kgK)
  0.90   ,                                                                   ! Thermal Absorptance
  0.75   ,                                                                   ! Solar Absorptance
  0.75  ;                                                                    ! Visible Absorptance
  
 MATERIAL,
  mat-397,                                              ! Name
  Smooth,   !-Roughness
0.1015,                                    ! Thickness (m)
  0.12115142788,                                 ! Conductivity {W/m-K}
  592.683150306369,                                      ! Density (kg/m3)
  837.36,                                 ! Specific Heat (J/kgK)
  0.90   ,                                                                   ! Thermal Absorptance
  0.75   ,                                                                   ! Solar Absorptance
  0.75  ;                                                                    ! Visible Absorptance
  
! ==============           ====================== !
! ==============  Windows  ====================== !
! ==============           ====================== !


  CONSTRUCTION,
  aim0068,                         !- Name(--Dbl Clr 6mm/6mm Air)
  CLEAR 6MM,                                            !- Outside Layer
  AIR 6MM,                                              !- Layer 2
  CLEAR 6MM;                                            !- Layer 3
                                                        
  WindowMaterial:Glazing,                               
  CLEAR 6MM,                                            ! Name
  SpectralAverage,                                      ! Optical Data Type
  ,                                                     ! Window Glass Spectral Data Set Name 
  .006,                                                 ! Thickness
  .775,                                                 ! Solar Transmittance
  .071,                                                 ! Solar Reflectance Front
  .071,                                                 ! Solar Reflectance Back
  .881,                                                 ! Visible Transmittance
  .080,                                                 ! Visible Reflectance Front
  .080,                                                 ! Visible Reflectance Back
  .0,                                                   ! IR Transmittance
  .84,                                                  ! IR Emittance Front
  .84,                                                  ! IR Emittance Back
  .9;                                                   ! Conductivity
                                                        
  WindowMaterial:Gas,                                   
  AIR 6MM,                                              !- Name
  Air,                                                  !- Gas Type
  0.0063;                                               !- Thickness {m}

 

  ! ==============                ====================== !
  ! ==============  Construction  ====================== !
  ! ==============                ====================== !


  
CONSTRUCTION,
  aim0014,
  aim0017,                      ! Layer
  aim0023;
  
CONSTRUCTION,
  aim0030,