
! == Converted from gbXML file using Autodesk's Green Building Studio web service == !
! == gbXML2EnergyPlus stylesheet version 5.0.0.0                                  == !
! == Please see your Project End User License Agreement for use restrictions.     == !

  Version,  7.0;                                              !- Version Identifier

  ! ============== Run  Control ====================== !
  TIMESTEP,4;

  HeatBalanceAlgorithm,ConductionTransferFunction;

  SurfaceConvectionAlgorithm:Inside,TARP;

  SurfaceConvectionAlgorithm:Outside,DOE-2;

  SimulationControl,
  Yes,                                                         !- Do Zone Sizing Calculation
  Yes,                                                         !- Do System Sizing Calculation
  No,                                                          !- Do Plant Sizing Calculation
  Yes,                                                         !- Run Simulation for Sizing Periods
  Yes;                                                         !- Run Simulation for Weather File Run Periods

  RunPeriod,
  ,                                                            !- Name
  1,                                                           !- Begin Month
  1,                                                           !- Begin Day of Month
  12,                                                          !- End Month
  31,                                                          !- End Day of Month
  UseWeatherFile,                                              !- Day of Week for Start Day
  Yes,                                                         !- Use Weather File Holidays and Special Days
  Yes,                                                         !- Use Weather File Daylight Saving Period
  No,                                                          !- Apply Weekend Holiday Rule
  Yes,                                                         !- Use Weather File Rain Indicators
  Yes,                                                         !- Use Weather File Snow Indicators
  1;                                                           !- Number of Times Runperiod to be Repeated
  

! ============== Location  ====================== !

  
  ! Basic description:
  Site:Location,
  Waltham  MA United States,                !- Name
    42.408009,                               !- Latitude {deg}
    -71.252701,                              !- Longitude {deg}
    -5.9377250833333335 ,                                                                         !-Time Zone {hr}
    45;                              !- Elevation {m}
  
! ============== Ground Temps  ====================== !

Site:GroundTemperature:BuildingSurface,18.89,18.92,19.02,19.12,19.21,19.23,19.07,19.32,19.09,19.21,19.13,18.96;                                                                      



! ============== Heating Design Day  ====================== !


SizingPeriod:DesignDay,
  GBS_04R20_265135 Winter,             !- Name
  -13.7,                !- Maximum Dry-Bulb Temperature {C}
  ,                                                                          !- Daily Dry-Bulb Temperature Range {deltaC}
  -13.7,                !- Wet-Bulb at Max {C}
  99400,                                                      !- Barometric Pressure {Pa}
  7.5,                              !- Wind Speed {m/s}
  320,                                !- Wind Direction {deg}
  ,                           !- Sky Clearness
  ,                                   !- Rain Indicator
  ,                                   !- Snow Indicator
  21,                                  !- Day of Month
  1,                                 !- Month
  WinterDesignDay,                                                           !- Day Type
   ,                              !- Daylight Saving Time Indicator
  Wet-Bulb ;                                                                 !- Humidity Indicating Type


! ============== Cooling-Design Day  ====================== !


SizingPeriod:DesignDay,
  GBS_04R20_265135 Summer,                  !- Name
  30.7,                     !- Maximum Dry-Bulb Temperature {C}
  8.5,                !- Daily Dry-Bulb Temperature Range {deltaC}
  21.9,                     !- Wet-Bulb at Max {C}
  99800,                                                           !- Barometric Pressure {Pa}}
  0,                                 !- Wind Speed {m/s}
  0,                                   !- Wind Direction {deg}
  ,                               !- Sky Clearness
  ,                                       !- Rain Indicator
  ,                                       !- Snow Indicator
  21,                                      !- Day of Month
  7,                                     !- Month
  SummerDesignDay,                                                               !- Day Type
  ,                                   !- Daylight Saving Time Indicator
  Wet-Bulb ;                                                                     !- Humidity Indicating Type

! ==============                ====================== !
! ============== Day Schedules  ====================== !
! ==============                ====================== !


  
  Schedule:Day:Interval,
  aim0127,                       !- Name
  Fraction,                     !- Schedule Type Limits Name
  NO,                                                 !- Interpolate to Timestep
  6:00, 0,
  7:00, 0.1,
  8:00, 0.3,
  12:00, 0.9,
  13:00, 0.8,
  17:00, 0.9,
  18:00, 0.5,
  20:00, 0.3,
  22:00, 0.2,
  24:00, 0;
  
  
  Schedule:Day:Interval,
  aim0133,                       !- Name
  Fraction,                     !- Schedule Type Limits Name
  NO,                                                 !- Interpolate to Timestep
  7:00, 0,
  8:00, 0.1,
  9:00, 0.2,
  11:00, 0.95,
  13:00, 0.45,
  18:00, 0.95,
  19:00, 0.3,
  22:00, 0.1,
  24:00, 0;
  
  
  Schedule:Day:Interval,
  ds-202-Equip,                       !- Name
  Fraction,                     !- Schedule Type Limits Name
  NO,                                                 !- Interpolate to Timestep
  7:00, 0.210979924,
  8:00, 0.3,
  12:00, 0.9,
  13:00, 0.8,
  17:00, 0.9,
  18:00, 0.5,
  20:00, 0.3,
  22:00, 0.2,
  24:00, 0.210979924;
  
  
  Schedule:Day:Interval,
  ds-200-Equip,                       !- Name
  Fraction,                     !- Schedule Type Limits Name
  NO,                                                 !- Interpolate to Timestep
  8:00, 0.210979924,
  12:00, 0.3,
  17:00, 0.15,
  24:00, 0.210979924;
  
  
  Schedule:Day:Interval,
  ds-201-Equip,                       !- Name
  Fraction,                     !- Schedule Type Limits Name
  NO,                                                 !- Interpolate to Timestep
  24:00, 0.210979924;
  
  
  Schedule:Day:Interval,
  ds-205-Fan,                       !- Name
  OnOff,                     !- Schedule Type Limits Name
  NO,                                                 !- Interpolate to Timestep
  7:00, 0,
  22:00, 1,
  24:00, 0;
  
  
  Schedule:Day:Interval,
  ds-203-Fan,                       !- Name
  OnOff,                     !- Schedule Type Limits Name
  NO,                                                 !- Interpolate to Timestep
  7:00, 0,
  18:00, 1,
  24:00, 0;
  
  
  Schedule:Day:Interval,
  ds-204-Fan,                       !- Name
  OnOff,                     !- Schedule Type Limits Name
  NO,                                                 !- Interpolate to Timestep
  24:00, 0;
  
  
  Schedule:Day:Interval,
  ds-205-Temp-On-21.1-Off-18.3,                       !- Name
  Temp,                     !- Schedule Type Limits Name
  NO,                                                 !- Interpolate to Timestep
  7:00, 18.3,
  22:00, 21.1,
  24:00, 18.3;
  
  
  Schedule:Day:Interval,
  ds-203-Temp-On-21.1-Off-18.3,                       !- Name
  Temp,                     !- Schedule Type Limits Name
  NO,                                                 !- Interpolate to Timestep
  7:00, 18.3,
  18:00, 21.1,
  24:00, 18.3;
  
  
  Schedule:Day:Interval,
  ds-204-Temp-On-21.1-Off-18.3,                       !- Name
  Temp,                     !- Schedule Type Limits Name
  NO,                                                 !- Interpolate to Timestep
  24:00, 18.3;
  
  
  Schedule:Day:Interval,
  ds-205-Temp-On-23.9-Off-29.4,                       !- Name
  Temp,                     !- Schedule Type Limits Name
  NO,                                                 !- Interpolate to Timestep
  7:00, 29.4,
  22:00, 23.9,
  24:00, 29.4;
  
  
  Schedule:Day:Interval,
  ds-203-Temp-On-23.9-Off-29.4,                       !- Name
  Temp,                     !- Schedule Type Limits Name
  NO,                                                 !- Interpolate to Timestep
  7:00, 29.4,
  18:00, 23.9,
  24:00, 29.4;
  
  
  Schedule:Day:Interval,
  ds-204-Temp-On-23.9-Off-29.4,                       !- Name
  Temp,                     !- Schedule Type Limits Name
  NO,                                                 !- Interpolate to Timestep
  24:00, 29.4;
  
  
  Schedule:Day:Interval,
  ds-205-Occ,                       !- Name
  Fraction,                     !- Schedule Type Limits Name
  NO,                                                 !- Interpolate to Timestep
  7:00, 0,
  8:00, 0.1,
  9:00, 0.2,
  11:00, 0.95,
  13:00, 0.45,
  18:00, 0.95,
  19:00, 0.3,
  22:00, 0.1,
  24:00, 0;
  
  
  Schedule:Day:Interval,
  ds-203-Occ,                       !- Name
  Fraction,                     !- Schedule Type Limits Name
  NO,                                                 !- Interpolate to Timestep
  7:00, 0,
  9:00, 0.1,
  13:00, 0.3,
  18:00, 0.1,
  24:00, 0;
  
  
  Schedule:Day:Interval,
  ds-204-Occ,                       !- Name
  Fraction,                     !- Schedule Type Limits Name
  NO,                                                 !- Interpolate to Timestep
  24:00, 0;
  
  
  Schedule:Day:Interval,
  ds-202-Light,                       !- Name
  Fraction,                     !- Schedule Type Limits Name
  NO,                                                 !- Interpolate to Timestep
  7:00, 0.156977937,
  8:00, 0.3,
  12:00, 0.9,
  13:00, 0.8,
  17:00, 0.9,
  18:00, 0.5,
  20:00, 0.3,
  22:00, 0.2,
  24:00, 0.156977937;
  
  
  Schedule:Day:Interval,
  ds-200-Light,                       !- Name
  Fraction,                     !- Schedule Type Limits Name
  NO,                                                 !- Interpolate to Timestep
  8:00, 0.156977937,
  12:00, 0.3,
  17:00, 0.15,
  24:00, 0.156977937;
  
  
  Schedule:Day:Interval,
  ds-201-Light,                       !- Name
  Fraction,                     !- Schedule Type Limits Name
  NO,                                                 !- Interpolate to Timestep
  24:00, 0.156977937;
  

! ==============                 ====================== !
! ============== Week Schedules  ====================== !
! ==============                 ====================== !

 
  Schedule:Week:Daily,
  aim0128,                                                          !- Name
  aim0127,                    !- Sunday Schedule:Day Name
    aim0127,                  !- Monday Schedule:Day Name
    aim0127,                  !- Tuesday Schedule:Day Name
    aim0127,                  !- Wednesday Schedule:Day Name
    aim0127,                  !- Thursday Schedule:Day Name
    aim0127,                  !- Friday Schedule:Day Name
    aim0127,                  !- Saturday Schedule:Day Name
    aim0127,                  !- Holiday Schedule:Day Name
    aim0127,                  !- CoolingDesignDay Schedule:Day Name
    aim0127,                  !- HeatingDesignDay Schedule:Day Name
    aim0127,                  !- CustomDay1 Schedule:Day Name
    aim0127;                  !- CustomDay2 Schedule:Day Name
  
  Schedule:Week:Daily,
  aim0134,                                                          !- Name
  aim0133,                    !- Sunday Schedule:Day Name
    aim0133,                  !- Monday Schedule:Day Name
    aim0133,                  !- Tuesday Schedule:Day Name
    aim0133,                  !- Wednesday Schedule:Day Name
    aim0133,                  !- Thursday Schedule:Day Name
    aim0133,                  !- Friday Schedule:Day Name
    aim0133,                  !- Saturday Schedule:Day Name
    aim0133,                  !- Holiday Schedule:Day Name
    aim0133,                  !- CoolingDesignDay Schedule:Day Name
    aim0133,                  !- HeatingDesignDay Schedule:Day Name
    aim0133,                  !- CustomDay1 Schedule:Day Name
    aim0133;                  !- CustomDay2 Schedule:Day Name
  
  Schedule:Week:Daily,
  ws-57-Equip,                                                          !- Name
  ds-201-Equip,                  !Sunday Schedule:Day Name
  ds-202-Equip,               !Monday Schedule:Day Name
  ds-202-Equip,               !Tuesday Schedule:Day Name
  ds-202-Equip,               !Wednesday Schedule:Day Name
  ds-202-Equip,               !Thursday Schedule:Day Name
  ds-202-Equip,               !Friday Schedule:Day Name
  ds-200-Equip,                     !Saturday Schedule:Day Name
  ds-201-Equip,                  !Holiday Schedule:Day Name
  ds-202-Equip,         !SummerDesignDay Schedule:Day Name
    ds-201-Equip,       !WinterDesignDay Schedule:Day Name

    ds-201-Equip,                      !CustomDay1 Schedule:Day Name
  ds-201-Equip;                      !CustomDay2 Schedule:Day Name
  
  Schedule:Week:Daily,
  ws-11-Fan,                                                          !- Name
  ds-204-Fan,                  !Sunday Schedule:Day Name
  ds-205-Fan,               !Monday Schedule:Day Name
  ds-205-Fan,               !Tuesday Schedule:Day Name
  ds-205-Fan,               !Wednesday Schedule:Day Name
  ds-205-Fan,               !Thursday Schedule:Day Name
  ds-205-Fan,               !Friday Schedule:Day Name
  ds-203-Fan,                     !Saturday Schedule:Day Name
  ds-204-Fan,                  !Holiday Schedule:Day Name
  ds-205-Fan,         !SummerDesignDay Schedule:Day Name
    ds-204-Fan,       !WinterDesignDay Schedule:Day Name

    ds-204-Fan,                      !CustomDay1 Schedule:Day Name
  ds-204-Fan;                      !CustomDay2 Schedule:Day Name
  
  Schedule:Week:Daily,
  ws-11-Temp-On-21.1-Off-18.3,                                                          !- Name
  ds-204-Temp-On-21.1-Off-18.3,                  !Sunday Schedule:Day Name
  ds-205-Temp-On-21.1-Off-18.3,               !Monday Schedule:Day Name
  ds-205-Temp-On-21.1-Off-18.3,               !Tuesday Schedule:Day Name
  ds-205-Temp-On-21.1-Off-18.3,               !Wednesday Schedule:Day Name
  ds-205-Temp-On-21.1-Off-18.3,               !Thursday Schedule:Day Name
  ds-205-Temp-On-21.1-Off-18.3,               !Friday Schedule:Day Name
  ds-203-Temp-On-21.1-Off-18.3,                     !Saturday Schedule:Day Name
  ds-204-Temp-On-21.1-Off-18.3,                  !Holiday Schedule:Day Name
  ds-205-Temp-On-21.1-Off-18.3,         !SummerDesignDay Schedule:Day Name
    ds-204-Temp-On-21.1-Off-18.3,       !WinterDesignDay Schedule:Day Name

    ds-204-Temp-On-21.1-Off-18.3,                      !CustomDay1 Schedule:Day Name
  ds-204-Temp-On-21.1-Off-18.3;                      !CustomDay2 Schedule:Day Name
  
  Schedule:Week:Daily,
  ws-11-Temp-On-23.9-Off-29.4,                                                          !- Name
  ds-204-Temp-On-23.9-Off-29.4,                  !Sunday Schedule:Day Name
  ds-205-Temp-On-23.9-Off-29.4,               !Monday Schedule:Day Name
  ds-205-Temp-On-23.9-Off-29.4,               !Tuesday Schedule:Day Name
  ds-205-Temp-On-23.9-Off-29.4,               !Wednesday Schedule:Day Name
  ds-205-Temp-On-23.9-Off-29.4,               !Thursday Schedule:Day Name
  ds-205-Temp-On-23.9-Off-29.4,               !Friday Schedule:Day Name
  ds-203-Temp-On-23.9-Off-29.4,                     !Saturday Schedule:Day Name
  ds-204-Temp-On-23.9-Off-29.4,                  !Holiday Schedule:Day Name
  ds-205-Temp-On-23.9-Off-29.4,         !SummerDesignDay Schedule:Day Name
    ds-204-Temp-On-23.9-Off-29.4,       !WinterDesignDay Schedule:Day Name

    ds-204-Temp-On-23.9-Off-29.4,                      !CustomDay1 Schedule:Day Name
  ds-204-Temp-On-23.9-Off-29.4;                      !CustomDay2 Schedule:Day Name
  
  Schedule:Week:Daily,
  ws-11-Occ,                                                          !- Name
  ds-204-Occ,                  !Sunday Schedule:Day Name
  ds-205-Occ,               !Monday Schedule:Day Name
  ds-205-Occ,               !Tuesday Schedule:Day Name
  ds-205-Occ,               !Wednesday Schedule:Day Name
  ds-205-Occ,               !Thursday Schedule:Day Name
  ds-205-Occ,               !Friday Schedule:Day Name
  ds-203-Occ,                     !Saturday Schedule:Day Name
  ds-204-Occ,                  !Holiday Schedule:Day Name
  ds-205-Occ,         !SummerDesignDay Schedule:Day Name
    ds-204-Occ,       !WinterDesignDay Schedule:Day Name

    ds-204-Occ,                      !CustomDay1 Schedule:Day Name
  ds-204-Occ;                      !CustomDay2 Schedule:Day Name
  
  Schedule:Week:Daily,
  ws-57-Light,                                                          !- Name
  ds-201-Light,                  !Sunday Schedule:Day Name
  ds-202-Light,               !Monday Schedule:Day Name
  ds-202-Light,               !Tuesday Schedule:Day Name
  ds-202-Light,               !Wednesday Schedule:Day Name
  ds-202-Light,               !Thursday Schedule:Day Name
  ds-202-Light,               !Friday Schedule:Day Name
  ds-200-Light,                     !Saturday Schedule:Day Name
  ds-201-Light,                  !Holiday Schedule:Day Name
  ds-202-Light,         !SummerDesignDay Schedule:Day Name
    ds-201-Light,       !WinterDesignDay Schedule:Day Name

    ds-201-Light,                      !CustomDay1 Schedule:Day Name
  ds-201-Light;                      !CustomDay2 Schedule:Day Name
  
! ==============            ====================== !
! ============== Schedules  ====================== !
! ==============            ====================== !


Schedule:Year,
aim0130,                                                                      !-Name
Fraction,                                                                    !-Type
aim0128,                   !-Week Schedule
01,                          !-Start Month 1
01,                          !-Start Day 1
12,                            !-End Month 1
31;                            !-End Day 1

Schedule:Year,
aim0136,                                                                      !-Name
Fraction,                                                                    !-Type
aim0134,                   !-Week Schedule
01,                          !-Start Month 1
01,                          !-Start Day 1
12,                            !-End Month 1
31;                            !-End Day 1

Schedule:Year,
EquipSched-6,                                                                      !-Name
Fraction,                                                                    !-Type
ws-57-Equip,                   !-Week Schedule
01,                          !-Start Month 1
01,                          !-Start Day 1
12,                            !-End Month 1
31;                            !-End Day 1

Schedule:Year,
FanSch-19,                                                                      !-Name
OnOff,                                                                    !-Type
ws-11-Fan,                   !-Week Schedule
01,                          !-Start Month 1
01,                          !-Start Day 1
12,                            !-End Month 1
31;                            !-End Day 1

Schedule:Year,
Heatsched-9,                                                                      !-Name
Temp,                                                                    !-Type
ws-11-Temp-On-21.1-Off-18.3,                   !-Week Schedule
01,                          !-Start Month 1
01,                          !-Start Day 1
12,                            !-End Month 1
31;                            !-End Day 1

Schedule:Year,
Coolsched-9,                                                                      !-Name
Temp,                                                                    !-Type
ws-11-Temp-On-23.9-Off-29.4,                   !-Week Schedule
01,                          !-Start Month 1
01,                          !-Start Day 1
12,                            !-End Month 1
31;                            !-End Day 1

Schedule:Year,
peopleSched-19,                                                                      !-Name
Fraction,                                                                    !-Type
ws-11-Occ,                   !-Week Schedule
01,                          !-Start Month 1
01,                          !-Start Day 1
12,                            !-End Month 1
31;                            !-End Day 1

Schedule:Year,
LightSched-6,                                                                      !-Name
Fraction,                                                                    !-Type
ws-57-Light,                   !-Week Schedule
01,                          !-Start Month 1
01,                          !-Start Day 1
12,                            !-End Month 1
31;                            !-End Day 1

Schedule:Year,
DHWSchedule-19,                                                                      !-Name
Fraction,                                                                    !-Type
ws-11-Occ,                   !-Week Schedule
01,                          !-Start Month 1
01,                          !-Start Day 1
12,                            !-End Month 1
31;                            !-End Day 1

  ! ==============             ====================== !
  ! ==============  Materials  ====================== !
  ! ==============             ====================== !
  
 MATERIAL,
  aim0017,                                              ! Name
  
Rough,                                     !-Roughness
0.2032,                                    ! Thickness (m)
  0.53,                                 ! Conductivity {W/m-K}
  1280,                                      ! Density (kg/m3)
  840,                                 ! Specific Heat (J/kgK)
  0.90   ,                                                                   ! Thermal Absorptance
  0.75   ,                                                                   ! Solar Absorptance
  0.75  ;                                                                    ! Visible Absorptance
  
 MATERIAL:NoMass,                         
  aim0028,                                              ! Name
  
Rough,                                     !-Roughness
1.46524;                                      ! Resistance {m2-K/w}
  
 MATERIAL,
  aim0031,                                              ! Name
  
Rough,                                     !-Roughness
0.0159,                                    ! Thickness (m)
  0.16,                                 ! Conductivity {W/m-K}
  800,                                      ! Density (kg/m3)
  1090,                                 ! Specific Heat (J/kgK)
  0.90   ,                                                                   ! Thermal Absorptance
  0.75   ,                                                                   ! Solar Absorptance
  0.75  ;                                                                    ! Visible Absorptance
  
 MATERIAL,
  aim0041,                                              ! Name
  
Rough,                                     !-Roughness
0.0008,                                    ! Thickness (m)
  45.28,                                 ! Conductivity {W/m-K}
  7824,                                      ! Density (kg/m3)
  500,                                 ! Specific Heat (J/kgK)
  0.90   ,                                                                   ! Thermal Absorptance
  0.75   ,                                                                   ! Solar Absorptance
  0.75  ;                                                                    ! Visible Absorptance
  
 MATERIAL,
  aim0047,                                              ! Name
  
Rough,                                     !-Roughness
0.0376,                                    ! Thickness (m)
  0.15,                                 ! Conductivity {W/m-K}
  608,                                      ! Density (kg/m3)
  1630,                                 ! Specific Heat (J/kgK)
  0.90   ,                                                                   ! Thermal Absorptance
  0.75   ,                                                                   ! Solar Absorptance
  0.75  ;                                                                    ! Visible Absorptance
  
 MATERIAL,
  aim0058,                                              ! Name
  
Rough,                                     !-Roughness
0.0127,                                    ! Thickness (m)
  1.59,                                 ! Conductivity {W/m-K}
  1920,                                      ! Density (kg/m3)
  1260,                                 ! Specific Heat (J/kgK)
  0.90   ,                                                                   ! Thermal Absorptance
  0.75   ,                                                                   ! Solar Absorptance
  0.75  ;                                                                    ! Visible Absorptance
  
 MATERIAL:NoMass,                         
  aim0064,                                              ! Name
  
Rough,                                     !-Roughness
0.00001;                                      ! Resistance {m2-K/w}
  
 MATERIAL,
  aim0076,                                              ! Name
  
Rough,                                     !-Roughness
0.1016,                                    ! Thickness (m)
  0.89,                                 ! Conductivity {W/m-K}
  1920,                                      ! Density (kg/m3)
  790,                                 ! Specific Heat (J/kgK)
  0.90   ,                                                                   ! Thermal Absorptance
  0.75   ,                                                                   ! Solar Absorptance
  0.75  ;                                                                    ! Visible Absorptance
  
 MATERIAL,
  aim0086,                                              ! Name
  
Rough,                                     !-Roughness
0.0127,                                    ! Thickness (m)
  0.06,                                 ! Conductivity {W/m-K}
  288,                                      ! Density (kg/m3)
  1380,                                 ! Specific Heat (J/kgK)
  0.90   ,                                                                   ! Thermal Absorptance
  0.75   ,                                                                   ! Solar Absorptance
  0.75  ;                                                                    ! Visible Absorptance
  
 MATERIAL,
  aim0092,                                              ! Name
  
Rough,                                     !-Roughness
0.2,                                    ! Thickness (m)
  1.9,                                 ! Conductivity {W/m-K}
  2300,                                      ! Density (kg/m3)
  840,                                 ! Specific Heat (J/kgK)
  0.90   ,                                                                   ! Thermal Absorptance
  0.75   ,                                                                   ! Solar Absorptance
  0.75  ;                                                                    ! Visible Absorptance
  
 MATERIAL,
  mat-353,                                              ! Name
  Smooth,   !-Roughness
0.01588,                                    ! Thickness (m)
  0.1602660317384,                                 ! Conductivity {W/m-K}
  800.923176089688,                                      ! Density (kg/m3)
  837.36,                                 ! Specific Heat (J/kgK)
  0.90   ,                                                                   ! Thermal Absorptance
  0.75   ,                                                                   ! Solar Absorptance
  0.75  ;                                                                    ! Visible Absorptance
  
 MATERIAL:AirGap,
  mat-464,                                              ! Name
  0.10918837812992;                                      ! Resistance {m2-K/w}
  
 MATERIAL,
  mat-397,                                              ! Name
  Smooth,   !-Roughness
0.1015,                                    ! Thickness (m)
  0.12115142788,                                 ! Conductivity {W/m-K}
  592.683150306369,                                      ! Density (kg/m3)
  837.36,                                 ! Specific Heat (J/kgK)
  0.90   ,                                                                   ! Thermal Absorptance
  0.75   ,                                                                   ! Solar Absorptance
  0.75  ;                                                                    ! Visible Absorptance
  
 MATERIAL,
  mat-264,                                              ! Name
  Smooth,   !-Roughness
0.10159,                                    ! Thickness (m)
  1.3112045965984,                                 ! Conductivity {W/m-K}
  2242.58489305113,                                      ! Density (kg/m3)
  837.36,                                 ! Specific Heat (J/kgK)
  0.90   ,                                                                   ! Thermal Absorptance