
! == Converted from gbXML file using Autodesk's Green Building Studio web service == !
! == gbXML2EnergyPlus stylesheet version 5.0.0.0                                  == !
! == Please see your Project End User License Agreement for use restrictions.     == !

  Version,  7.0;                                              !- Version Identifier

  ! ============== Run  Control ====================== !
  TIMESTEP,4;

  HeatBalanceAlgorithm,ConductionTransferFunction;

  SurfaceConvectionAlgorithm:Inside,TARP;

  SurfaceConvectionAlgorithm:Outside,DOE-2;

  SimulationControl,
  Yes,                                                         !- Do Zone Sizing Calculation
  Yes,                                                         !- Do System Sizing Calculation
  No,                                                          !- Do Plant Sizing Calculation
  Yes,                                                         !- Run Simulation for Sizing Periods
  Yes;                                                         !- Run Simulation for Weather File Run Periods

  RunPeriod,
  ,                                                            !- Name
  1,                                                           !- Begin Month
  1,                                                           !- Begin Day of Month
  12,                                                          !- End Month
  31,                                                          !- End Day of Month
  UseWeatherFile,                                              !- Day of Week for Start Day
  Yes,                                                         !- Use Weather File Holidays and Special Days
  Yes,                                                         !- Use Weather File Daylight Saving Period
  No,                                                          !- Apply Weekend Holiday Rule
  Yes,                                                         !- Use Weather File Rain Indicators
  Yes,                                                         !- Use Weather File Snow Indicators
  1;                                                           !- Number of Times Runperiod to be Repeated
  

! ============== Location  ====================== !

  
  ! Basic description:
  Site:Location,
  Beijing  Beijing China,                !- Name
    39.906570,                               !- Latitude {deg}
    116.387604,                              !- Longitude {deg}
    9.698967 ,                                                                         !-Time Zone {hr}
    34.0;                              !- Elevation {m}
  
! ============== Ground Temps  ====================== !

Site:GroundTemperature:BuildingSurface,18.89,18.92,19.02,19.12,19.21,19.23,19.07,19.32,19.09,19.21,19.13,18.96;                                                                      



! ============== Heating Design Day  ====================== !


SizingPeriod:DesignDay,
  GBS_06M12_07_145204 Winter,             !- Name
  -10.4,                !- Maximum Dry-Bulb Temperature {C}
  ,                                                                          !- Daily Dry-Bulb Temperature Range {deltaC}
  -10.4,                !- Wet-Bulb at Max {C}
  99400,                                                      !- Barometric Pressure {Pa}
  1.89999999999999,                              !- Wind Speed {m/s}
  340,                                !- Wind Direction {deg}
  ,                           !- Sky Clearness
  ,                                   !- Rain Indicator
  ,                                   !- Snow Indicator
  21,                                  !- Day of Month
  1,                                 !- Month
  WinterDesignDay,                                                           !- Day Type
   ,                              !- Daylight Saving Time Indicator
  Wet-Bulb ;                                                                 !- Humidity Indicating Type


! ============== Cooling-Design Day  ====================== !


SizingPeriod:DesignDay,
  GBS_06M12_07_145204 Summer,                  !- Name
  32.9,                     !- Maximum Dry-Bulb Temperature {C}
  8.7,                !- Daily Dry-Bulb Temperature Range {deltaC}
  21.8,                     !- Wet-Bulb at Max {C}
  99800,                                                           !- Barometric Pressure {Pa}}
  0,                                 !- Wind Speed {m/s}
  0,                                   !- Wind Direction {deg}
  ,                               !- Sky Clearness
  ,                                       !- Rain Indicator
  ,                                       !- Snow Indicator
  21,                                      !- Day of Month
  7,                                     !- Month
  SummerDesignDay,                                                               !- Day Type
  ,                                   !- Daylight Saving Time Indicator
  Wet-Bulb ;                                                                     !- Humidity Indicating Type

! ==============                ====================== !
! ============== Day Schedules  ====================== !
! ==============                ====================== !


  
  Schedule:Day:Interval,
  ds-202-Equip,                       !- Name
  Fraction,                     !- Schedule Type Limits Name
  NO,                                                 !- Interpolate to Timestep
  7:00, 0.210979924,
  8:00, 0.3,
  12:00, 0.9,
  13:00, 0.8,
  17:00, 0.9,
  18:00, 0.5,
  20:00, 0.3,
  22:00, 0.2,
  24:00, 0.210979924;
  
  
  Schedule:Day:Interval,
  ds-200-Equip,                       !- Name
  Fraction,                     !- Schedule Type Limits Name
  NO,                                                 !- Interpolate to Timestep
  8:00, 0.210979924,
  12:00, 0.3,
  17:00, 0.15,
  24:00, 0.210979924;
  
  
  Schedule:Day:Interval,
  ds-201-Equip,                       !- Name
  Fraction,                     !- Schedule Type Limits Name
  NO,                                                 !- Interpolate to Timestep
  24:00, 0.210979924;
  
  
  Schedule:Day:Interval,
  ds-391-Equip,                       !- Name
  Fraction,                     !- Schedule Type Limits Name
  NO,                                                 !- Interpolate to Timestep
  9:00, 0.01,
  10:00, 0.1,
  12:00, 0.03,
  13:00, 0.1,
  17:00, 0.03,
  18:00, 0.1,
  24:00, 0.01;
  
  
  Schedule:Day:Interval,
  ds-389-Equip,                       !- Name
  Fraction,                     !- Schedule Type Limits Name
  NO,                                                 !- Interpolate to Timestep
  24:00, 0.01;
  
  
  Schedule:Day:Interval,
  ds-390-Equip,                       !- Name
  Fraction,                     !- Schedule Type Limits Name
  NO,                                                 !- Interpolate to Timestep
  24:00, 0.01;
  
  
  Schedule:Day:Interval,
  ds-431-Fan,                       !- Name
  OnOff,                     !- Schedule Type Limits Name
  NO,                                                 !- Interpolate to Timestep
  5:00, 0,
  22:00, 1,
  24:00, 0;
  
  
  Schedule:Day:Interval,
  ds-432-Fan,                       !- Name
  OnOff,                     !- Schedule Type Limits Name
  NO,                                                 !- Interpolate to Timestep
  8:00, 0,
  24:00, 1;
  
  
  Schedule:Day:Interval,
  ds-433-Fan,                       !- Name
  OnOff,                     !- Schedule Type Limits Name
  NO,                                                 !- Interpolate to Timestep
  24:00, 0;
  
  
  Schedule:Day:Interval,
  ds-431-Temp-On-21.1-Off-18.3,                       !- Name
  Temp,                     !- Schedule Type Limits Name
  NO,                                                 !- Interpolate to Timestep
  5:00, 18.3,
  22:00, 21.1,
  24:00, 18.3;
  
  
  Schedule:Day:Interval,
  ds-432-Temp-On-21.1-Off-18.3,                       !- Name
  Temp,                     !- Schedule Type Limits Name
  NO,                                                 !- Interpolate to Timestep
  8:00, 18.3,
  24:00, 21.1;
  
  
  Schedule:Day:Interval,
  ds-433-Temp-On-21.1-Off-18.3,                       !- Name
  Temp,                     !- Schedule Type Limits Name
  NO,                                                 !- Interpolate to Timestep
  24:00, 18.3;
  
  
  Schedule:Day:Interval,
  ds-431-Temp-On-23.9-Off-29.4,                       !- Name
  Temp,                     !- Schedule Type Limits Name
  NO,                                                 !- Interpolate to Timestep
  5:00, 29.4,
  22:00, 23.9,
  24:00, 29.4;
  
  
  Schedule:Day:Interval,
  ds-432-Temp-On-23.9-Off-29.4,                       !- Name
  Temp,                     !- Schedule Type Limits Name
  NO,                                                 !- Interpolate to Timestep
  8:00, 29.4,
  24:00, 23.9;
  
  
  Schedule:Day:Interval,
  ds-433-Temp-On-23.9-Off-29.4,                       !- Name
  Temp,                     !- Schedule Type Limits Name
  NO,                                                 !- Interpolate to Timestep
  24:00, 29.4;
  
  
  Schedule:Day:Interval,
  ds-434-Equip,                       !- Name
  Fraction,                     !- Schedule Type Limits Name
  NO,                                                 !- Interpolate to Timestep
  5:00, 0.21,
  6:00, 0.22,
  7:00, 0.3,
  8:00, 0.41,
  11:00, 0.52,
  12:00, 0.48,
  13:00, 0.47,
  14:00, 0.49,
  16:00, 0.52,
  17:00, 0.41,
  18:00, 0.3,
  19:00, 0.26,
  20:00, 0.24,
  24:00, 0.21;
  
  
  Schedule:Day:Interval,
  ds-435-Equip,                       !- Name
  Fraction,                     !- Schedule Type Limits Name
  NO,                                                 !- Interpolate to Timestep
  24:00, 0.21;
  
  
  Schedule:Day:Interval,
  ds-436-Equip,                       !- Name
  Fraction,                     !- Schedule Type Limits Name
  NO,                                                 !- Interpolate to Timestep
  24:00, 0.21;
  
  
  Schedule:Day:Interval,
  ds-431-Occ,                       !- Name
  Fraction,                     !- Schedule Type Limits Name
  NO,                                                 !- Interpolate to Timestep
  5:00, 0,
  6:00, 0.05,
  7:00, 0.3,
  8:00, 0.65,
  11:00, 0.8,
  12:00, 0.5,
  13:00, 0.4,
  14:00, 0.6,
  16:00, 0.8,
  17:00, 0.65,
  18:00, 0.5,
  19:00, 0.15,
  20:00, 0.1,
  22:00, 0.02,
  24:00, 0;
  
  
  Schedule:Day:Interval,
  ds-432-Occ,                       !- Name
  Fraction,                     !- Schedule Type Limits Name
  NO,                                                 !- Interpolate to Timestep
  8:00, 0,
  24:00, 0.05;
  
  
  Schedule:Day:Interval,
  ds-433-Occ,                       !- Name
  Fraction,                     !- Schedule Type Limits Name
  NO,                                                 !- Interpolate to Timestep
  24:00, 0.0;
  
  
  Schedule:Day:Interval,
  ds-437-Light,                       !- Name
  Fraction,                     !- Schedule Type Limits Name
  NO,                                                 !- Interpolate to Timestep
  5:00, 0.156977937,
  6:00, 0.15,
  7:00, 0.75,
  8:00, 0.84,
  11:00, 0.9,
  12:00, 0.8,
  13:00, 0.78,
  14:00, 0.83,
  16:00, 0.9,
  17:00, 0.84,
  18:00, 0.75,
  19:00, 0.71,
  20:00, 0.4,
  21:00, 0.3,
  22:00, 0.2,
  24:00, 0.156977937;
  
  
  Schedule:Day:Interval,
  ds-438-Light,                       !- Name
  Fraction,                     !- Schedule Type Limits Name
  NO,                                                 !- Interpolate to Timestep
  9:00, 0.156977937,
  15:00, 0.2,
  24:00, 0.156977937;
  
  
  Schedule:Day:Interval,
  ds-439-Light,                       !- Name
  Fraction,                     !- Schedule Type Limits Name
  NO,                                                 !- Interpolate to Timestep
  24:00, 0.156977937;
  
  
  Schedule:Day:Interval,
  ds-205-Occ,                       !- Name
  Fraction,                     !- Schedule Type Limits Name
  NO,                                                 !- Interpolate to Timestep
  7:00, 0,
  8:00, 0.1,
  9:00, 0.2,
  11:00, 0.95,
  13:00, 0.45,
  18:00, 0.95,
  19:00, 0.3,
  22:00, 0.1,
  24:00, 0;
  
  
  Schedule:Day:Interval,
  ds-203-Occ,                       !- Name
  Fraction,                     !- Schedule Type Limits Name
  NO,                                                 !- Interpolate to Timestep
  7:00, 0,
  9:00, 0.1,
  13:00, 0.3,
  18:00, 0.1,
  24:00, 0;
  
  
  Schedule:Day:Interval,
  ds-204-Occ,                       !- Name
  Fraction,                     !- Schedule Type Limits Name
  NO,                                                 !- Interpolate to Timestep
  24:00, 0;
  

! ==============                 ====================== !
! ============== Week Schedules  ====================== !
! ==============                 ====================== !

 
  Schedule:Week:Daily,
  ws-57-Equip,                                                          !- Name
  ds-201-Equip,                  !Sunday Schedule:Day Name
  ds-202-Equip,               !Monday Schedule:Day Name
  ds-202-Equip,               !Tuesday Schedule:Day Name
  ds-202-Equip,               !Wednesday Schedule:Day Name
  ds-202-Equip,               !Thursday Schedule:Day Name
  ds-202-Equip,               !Friday Schedule:Day Name
  ds-200-Equip,                     !Saturday Schedule:Day Name
  ds-201-Equip,                  !Holiday Schedule:Day Name
  ds-202-Equip,         !SummerDesignDay Schedule:Day Name
    ds-201-Equip,       !WinterDesignDay Schedule:Day Name

    ds-201-Equip,                      !CustomDay1 Schedule:Day Name
  ds-201-Equip;                      !CustomDay2 Schedule:Day Name
  
  Schedule:Week:Daily,
  ws-84-Equip,                                                          !- Name
  ds-390-Equip,                  !Sunday Schedule:Day Name
  ds-391-Equip,               !Monday Schedule:Day Name
  ds-391-Equip,               !Tuesday Schedule:Day Name
  ds-391-Equip,               !Wednesday Schedule:Day Name
  ds-391-Equip,               !Thursday Schedule:Day Name
  ds-391-Equip,               !Friday Schedule:Day Name
  ds-389-Equip,                     !Saturday Schedule:Day Name
  ds-390-Equip,                  !Holiday Schedule:Day Name
  ds-391-Equip,         !SummerDesignDay Schedule:Day Name
    ds-390-Equip,       !WinterDesignDay Schedule:Day Name

    ds-390-Equip,                      !CustomDay1 Schedule:Day Name
  ds-390-Equip;                      !CustomDay2 Schedule:Day Name
  
  Schedule:Week:Daily,
  ws-109-Fan,                                                          !- Name
  ds-433-Fan,                  !Sunday Schedule:Day Name
  ds-431-Fan,               !Monday Schedule:Day Name
  ds-431-Fan,               !Tuesday Schedule:Day Name
  ds-431-Fan,               !Wednesday Schedule:Day Name
  ds-431-Fan,               !Thursday Schedule:Day Name
  ds-431-Fan,               !Friday Schedule:Day Name
  ds-432-Fan,                     !Saturday Schedule:Day Name
  ds-433-Fan,                  !Holiday Schedule:Day Name
  ds-431-Fan,         !SummerDesignDay Schedule:Day Name
    ds-433-Fan,       !WinterDesignDay Schedule:Day Name

    ds-433-Fan,                      !CustomDay1 Schedule:Day Name
  ds-433-Fan;                      !CustomDay2 Schedule:Day Name
  
  Schedule:Week:Daily,
  ws-109-Temp-On-21.1-Off-18.3,                                                          !- Name
  ds-433-Temp-On-21.1-Off-18.3,                  !Sunday Schedule:Day Name
  ds-431-Temp-On-21.1-Off-18.3,               !Monday Schedule:Day Name
  ds-431-Temp-On-21.1-Off-18.3,               !Tuesday Schedule:Day Name
  ds-431-Temp-On-21.1-Off-18.3,               !Wednesday Schedule:Day Name
  ds-431-Temp-On-21.1-Off-18.3,               !Thursday Schedule:Day Name
  ds-431-Temp-On-21.1-Off-18.3,               !Friday Schedule:Day Name
  ds-432-Temp-On-21.1-Off-18.3,                     !Saturday Schedule:Day Name
  ds-433-Temp-On-21.1-Off-18.3,                  !Holiday Schedule:Day Name
  ds-431-Temp-On-21.1-Off-18.3,         !SummerDesignDay Schedule:Day Name
    ds-433-Temp-On-21.1-Off-18.3,       !WinterDesignDay Schedule:Day Name

    ds-433-Temp-On-21.1-Off-18.3,                      !CustomDay1 Schedule:Day Name
  ds-433-Temp-On-21.1-Off-18.3;                      !CustomDay2 Schedule:Day Name
  
  Schedule:Week:Daily,
  ws-109-Temp-On-23.9-Off-29.4,                                                          !- Name
  ds-433-Temp-On-23.9-Off-29.4,                  !Sunday Schedule:Day Name
  ds-431-Temp-On-23.9-Off-29.4,               !Monday Schedule:Day Name
  ds-431-Temp-On-23.9-Off-29.4,               !Tuesday Schedule:Day Name
  ds-431-Temp-On-23.9-Off-29.4,               !Wednesday Schedule:Day Name
  ds-431-Temp-On-23.9-Off-29.4,               !Thursday Schedule:Day Name
  ds-431-Temp-On-23.9-Off-29.4,               !Friday Schedule:Day Name
  ds-432-Temp-On-23.9-Off-29.4,                     !Saturday Schedule:Day Name
  ds-433-Temp-On-23.9-Off-29.4,                  !Holiday Schedule:Day Name
  ds-431-Temp-On-23.9-Off-29.4,         !SummerDesignDay Schedule:Day Name
    ds-433-Temp-On-23.9-Off-29.4,       !WinterDesignDay Schedule:Day Name

    ds-433-Temp-On-23.9-Off-29.4,                      !CustomDay1 Schedule:Day Name
  ds-433-Temp-On-23.9-Off-29.4;                      !CustomDay2 Schedule:Day Name
  
  Schedule:Week:Daily,
  ws-110-Equip,                                                          !- Name
  ds-436-Equip,                  !Sunday Schedule:Day Name
  ds-434-Equip,               !Monday Schedule:Day Name
  ds-434-Equip,               !Tuesday Schedule:Day Name
  ds-434-Equip,               !Wednesday Schedule:Day Name
  ds-434-Equip,               !Thursday Schedule:Day Name
  ds-434-Equip,               !Friday Schedule:Day Name
  ds-435-Equip,                     !Saturday Schedule:Day Name
  ds-436-Equip,                  !Holiday Schedule:Day Name
  ds-434-Equip,         !SummerDesignDay Schedule:Day Name
    ds-436-Equip,       !WinterDesignDay Schedule:Day Name

    ds-436-Equip,                      !CustomDay1 Schedule:Day Name
  ds-436-Equip;                      !CustomDay2 Schedule:Day Name
  
  Schedule:Week:Daily,
  ws-109-Occ,                                                          !- Name
  ds-433-Occ,                  !Sunday Schedule:Day Name
  ds-431-Occ,               !Monday Schedule:Day Name
  ds-431-Occ,               !Tuesday Schedule:Day Name
  ds-431-Occ,               !Wednesday Schedule:Day Name
  ds-431-Occ,               !Thursday Schedule:Day Name
  ds-431-Occ,               !Friday Schedule:Day Name
  ds-432-Occ,                     !Saturday Schedule:Day Name
  ds-433-Occ,                  !Holiday Schedule:Day Name
  ds-431-Occ,         !SummerDesignDay Schedule:Day Name
    ds-433-Occ,       !WinterDesignDay Schedule:Day Name

    ds-433-Occ,                      !CustomDay1 Schedule:Day Name
  ds-433-Occ;                      !CustomDay2 Schedule:Day Name
  
  Schedule:Week:Daily,
  ws-111-Light,                                                          !- Name
  ds-439-Light,                  !Sunday Schedule:Day Name
  ds-437-Light,               !Monday Schedule:Day Name
  ds-437-Light,               !Tuesday Schedule:Day Name
  ds-437-Light,               !Wednesday Schedule:Day Name
  ds-437-Light,               !Thursday Schedule:Day Name
  ds-437-Light,               !Friday Schedule:Day Name
  ds-438-Light,                     !Saturday Schedule:Day Name
  ds-439-Light,                  !Holiday Schedule:Day Name
  ds-437-Light,         !SummerDesignDay Schedule:Day Name
    ds-439-Light,       !WinterDesignDay Schedule:Day Name

    ds-439-Light,                      !CustomDay1 Schedule:Day Name
  ds-439-Light;                      !CustomDay2 Schedule:Day Name
  
  Schedule:Week:Daily,
  ws-11-Occ,                                                          !- Name
  ds-204-Occ,                  !Sunday Schedule:Day Name
  ds-205-Occ,               !Monday Schedule:Day Name
  ds-205-Occ,               !Tuesday Schedule:Day Name
  ds-205-Occ,               !Wednesday Schedule:Day Name
  ds-205-Occ,               !Thursday Schedule:Day Name
  ds-205-Occ,               !Friday Schedule:Day Name
  ds-203-Occ,                     !Saturday Schedule:Day Name
  ds-204-Occ,                  !Holiday Schedule:Day Name
  ds-205-Occ,         !SummerDesignDay Schedule:Day Name
    ds-204-Occ,       !WinterDesignDay Schedule:Day Name

    ds-204-Occ,                      !CustomDay1 Schedule:Day Name
  ds-204-Occ;                      !CustomDay2 Schedule:Day Name
  
! ==============            ====================== !
! ============== Schedules  ====================== !
! ==============            ====================== !


Schedule:Year,
EquipSched-6,                                                                      !-Name
Fraction,                                                                    !-Type
ws-57-Equip,                   !-Week Schedule
01,                          !-Start Month 1
01,                          !-Start Day 1
12,                            !-End Month 1
31;                            !-End Day 1

Schedule:Year,
EquipSched-56,                                                                      !-Name
Fraction,                                                                    !-Type
ws-84-Equip,                   !-Week Schedule
01,                          !-Start Month 1
01,                          !-Start Day 1
12,                            !-End Month 1
31;                            !-End Day 1

Schedule:Year,
FanSch-83,                                                                      !-Name
OnOff,                                                                    !-Type
ws-109-Fan,                   !-Week Schedule
01,                          !-Start Month 1
01,                          !-Start Day 1
12,                            !-End Month 1
31;                            !-End Day 1

Schedule:Year,
Heatsched-9,                                                                      !-Name
Temp,                                                                    !-Type
ws-109-Temp-On-21.1-Off-18.3,                   !-Week Schedule
01,                          !-Start Month 1
01,                          !-Start Day 1
12,                            !-End Month 1
31;                            !-End Day 1

Schedule:Year,
Coolsched-9,                                                                      !-Name
Temp,                                                                    !-Type
ws-109-Temp-On-23.9-Off-29.4,                   !-Week Schedule
01,                          !-Start Month 1
01,                          !-Start Day 1
12,                            !-End Month 1
31;                            !-End Day 1

Schedule:Year,
EquipSched-84,                                                                      !-Name
Fraction,                                                                    !-Type
ws-110-Equip,                   !-Week Schedule
01,                          !-Start Month 1
01,                          !-Start Day 1
12,                            !-End Month 1
31;                            !-End Day 1

Schedule:Year,
peopleSched-83,                                                                      !-Name
Fraction,                                                                    !-Type
ws-109-Occ,                   !-Week Schedule
01,                          !-Start Month 1
01,                          !-Start Day 1
12,                            !-End Month 1
31;                            !-End Day 1

Schedule:Year,
LightSched-85,                                                                      !-Name
Fraction,                                                                    !-Type
ws-111-Light,                   !-Week Schedule
01,                          !-Start Month 1
01,                          !-Start Day 1
12,                            !-End Month 1
31;                            !-End Day 1

Schedule:Year,
DHWSchedule-19,                                                                      !-Name
Fraction,                                                                    !-Type
ws-11-Occ,                   !-Week Schedule
01,                          !-Start Month 1
01,                          !-Start Day 1
12,                            !-End Month 1
31;                            !-End Day 1

  ! ==============             ====================== !
  ! ==============  Materials  ====================== !
  ! ==============             ====================== !
  
 MATERIAL:NoMass,                         
  mat-465,                                              ! Name
  MediumRough,   !-Roughness
5.28330861918968;                                      ! Resistance {m2-K/w}
  
 MATERIAL,
  mat-378,                                              ! Name
  MediumRough,   !-Roughness
0.20422,                                    ! Thickness (m)
  1.730734684,                                 ! Conductivity {W/m-K}
  1842.12330500628,                                      ! Density (kg/m3)
  837.36,                                 ! Specific Heat (J/kgK)
  0.90   ,                                                                   ! Thermal Absorptance
  0.75   ,                                                                   ! Solar Absorptance
  0.75  ;                                                                    ! Visible Absorptance
  
 MATERIAL,
  mat-266,                                              ! Name
  
MediumRough,                               !-Roughness
0.20321,                                    ! Thickness (m)
  1.3112045965984,                                 ! Conductivity {W/m-K}
  2242.58489305113,                                      ! Density (kg/m3)
  837.36,                                 ! Specific Heat (J/kgK)
  0.90   ,                                                                   ! Thermal Absorptance
  0.75   ,                                                                   ! Solar Absorptance
  0.75  ;                                                                    ! Visible Absorptance
  
 MATERIAL:NoMass,                         
  mat-248,                                              ! Name
  
MediumRough,                               !-Roughness
0.366309397597151;                                      ! Resistance {m2-K/w}
  
 MATERIAL,
  mat-384,                                              ! Name
  
Smooth,                                    !-Roughness
0.01905,                                    ! Thickness (m)
  0.1154400034228,                                 ! Conductivity {W/m-K}
  512.5908326974,                                      ! Density (kg/m3)
  1381.644,                                 ! Specific Heat (J/kgK)
  0.90   ,                                                                   ! Thermal Absorptance
  0.75   ,                                                                   ! Solar Absorptance
  0.75  ;                                                                    ! Visible Absorptance
  
 MATERIAL:NoMass,                         
  mat-452,                                              ! Name
  Smooth,   !-Roughness
0.170826978687133;                                      ! Resistance {m2-K/w}
  
 MATERIAL,
  mat-223,                                              ! Name
  Smooth,   !-Roughness
0.01271,                                    ! Thickness (m)
  0.057114244572,                                 ! Conductivity {W/m-K}
  288.332343392288,                                      ! Density (kg/m3)
  1339.776,                                 ! Specific Heat (J/kgK)
  0.90   ,                                                                   ! Thermal Absorptance
  0.75   ,                                                                   ! Solar Absorptance
  0.75  ;                                                                    ! Visible Absorptance
  
 MATERIAL,
  mat-247,                                              ! Name
  Smooth,   !-Roughness
0.00954,                                    ! Thickness (m)
  0.1625159868276,                                 ! Conductivity {W/m-K}
  1121.29244652556,                                      ! Density (kg/m3)
  1465.38,                                 ! Specific Heat (J/kgK)
  0.90   ,                                                                   ! Thermal Absorptance
  0.75   ,                                                                   ! Solar Absorptance
  0.75  ;                                                                    ! Visible Absorptance
  
 MATERIAL:NoMass,                         
  mat-244,                                              ! Name
  
Smooth,                                    !-Roughness
0.0105666172383794;                                      ! Resistance {m2-K/w}
  
 MATERIAL,
  mat-416,                                              ! Name
  Smooth,   !-Roughness
0.0762,                                    ! Thickness (m)
  0.041537632416,                                 ! Conductivity {W/m-K}
  240.276952826906,                                      ! Density (kg/m3)
  711.756,                                 ! Specific Heat (J/kgK)
  0.90   ,                                                                   ! Thermal Absorptance
  0.75   ,                                                                   ! Solar Absorptance
  0.75  ;                                                                    ! Visible Absorptance
  
 MATERIAL,
  mat-415,                                              ! Name
  Smooth,   !-Roughness